#
#
#

#
#

@<TRIPOS>MOLECULE
Panda
96 46
SMALL
NO CHARGES


@<TRIPOS>ATOM
1 O1 -2.24661 -0.0387594 2.16537 O 0 GLY
2 O2 -1.06888 -0.0197704 1.2364 O 0 GLY
3 U3 0.0894037 0.103173 0.287053 U 0 GLY
4 C4 0.00173964 1.586 1.49537 C 1 GLY
5 C5 -0.00927231 1.34069 -2.99793 C 1 GLY
6 C6 -0.00560166 1.42246 -1.50016 C 1 GLY
7 C7 -0.00193101 1.50423 -0.00239674 C 1 GLY
8 C8 0.0234765 -1.97379 -2.96899 C 2 GLY
9 C9 0.0109886 -1.73589 -1.48803 C 2 GLY
10 C10 -0.00149936 -1.49799 -0.00706946 C 2 GLY
11 C11 -0.0139873 -1.26009 1.47389 C 2 GLY
12 O12 -5.47279 0.838319 -0.0469995 O 3 GLY
13 O13 -4.5676 0.899103 0.578252 O 3 GLY
14 O14 -3.81447 0.898376 1.1411 O 3 GLY
15 O15 -2.99019 0.93917 1.70757 O 3 GLY
16 O16 -2.18412 0.860826 2.23075 O 3 GLY
17 C17 -5.36022 -0.0527393 -0.016106 C 4 GLY
18 C18 -6.30208 -0.00242502 0.00293629 C 4 GLY
19 U19 -7.3616 -0.0376553 0.0158266 U 4 GLY
20 C20 -0.583876 -0.352006 -0.978595 C 5 GLY
21 C21 0.100097 -0.0048483 0.316807 C 5 GLY
22 C22 0.886558 0.260194 1.51865 C 5 GLY
23 O23 0.498887 -0.00242425 -0.000934464 O 5 GLY
24 C24 -3.00313 -0.999222 -1.14881 C 6 GLY
25 C25 -3.00043 0.000770776 -1.15165 C 6 GLY
26 C26 -2.99773 1.00076 -1.1545 C 6 GLY
27 C27 -2.99503 2.00076 -1.15734 C 6 GLY
28 C28 -0.00207025 0.0105867 4.49702 C 7 GLY
29 C29 0.840794 0.0154059 3.95195 C 7 GLY
30 C30 0.782955 1.49637 4.06125 C 7 GLY
31 C31 -0.886497 -1.47798 4.33983 C 7 GLY
32 C32 -0.996683 -0.0855616 4.23507 C 7 GLY
33 U33 -1.01712 -0.0280701 4.55903 U 7 GLY
34 U34 -0.0040406 -1.0206 4.49831 U 7 GLY
35 H35 0.181004 2.30528 2.77568 H 8 GLY
36 H36 0.770081 2.10349 3.40257 H 9 GLY
37 H37 0.358971 2.36937 1.72027 H 10 GLY
38 H38 -0.358508 -1.46899 2.96111 H 11 GLY
39 H39 -0.0828785 -1.90995 3.8225 H 12 GLY
40 H40 -0.788137 -1.26861 2.10916 H 13 GLY
41 H41 -6.30064 -0.998726 -0.00190963 H 14 GLY
42 H42 -0.000111365 -0.00196471 2.92952e-005 H 14 GLY
43 H43 0.500651 1.49778 -0.00115149 H 14 GLY
44 H44 0.499117 -1.50222 0.0016675 H 14 GLY
45 H45 -0.000111365 -0.00196471 2.92952e-005 H 14 GLY
46 H46 -0.500886 -1.50171 0.00120968 H 14 GLY
47 H47 -0.499341 1.49829 -0.001609 H 14 GLY
48 H48 -3.0001 -1.0015 -1.1504 H 14 GLY
49 H49 -2.99856 1.9985 -1.15322 H 14 GLY
50 H50 -0.00242066 -0.497736 4.5005 H 14 GLY
51 O51 -3.49982 0.502973 -5.01178 O 15 GLY
52 O52 -3.88857 0.502864 -5.93312 O 15 GLY
53 O53 -3.50871 -0.496978 -5.00791 O 15 GLY
54 O54 -3.13593 -0.503841 -5.92496 O 15 GLY
55 U55 -4.49999 0.511891 -5.00547 U 15 GLY
56 O56 0.509329 0.496778 -5.00025 O 16 GLY
57 O57 0.126829 0.499006 -5.9242 O 16 GLY
58 O58 0.504137 -0.503207 -5.00051 O 16 GLY
59 O59 0.883144 -0.504936 -5.91503 O 16 GLY
60 U60 -0.490888 0.501972 -5.00069 U 16 GLY
61 O61 -3.87492 1.25297 -5.92688 O 17 GLY
62 O62 -2.87492 1.25197 -5.92895 O 17 GLY
63 O63 -1.87493 1.25097 -5.93103 O 17 GLY
64 O64 -0.874922 1.24997 -5.9331 O 17 GLY
65 O65 0.125076 1.24897 -5.93517 O 17 GLY
66 O66 -3.87442 1.75295 -5.93112 O 17 GLY
67 O67 -2.87443 1.75195 -5.93319 O 17 GLY
68 O68 -1.87443 1.75095 -5.93526 O 17 GLY
69 O69 -0.874431 1.74995 -5.93733 O 17 GLY
70 O70 0.125567 1.74895 -5.93941 O 17 GLY
71 O71 -3.87363 1.50719 -5.42902 O 17 GLY
72 O72 -2.87364 1.50619 -5.43109 O 17 GLY
73 O73 -1.87364 1.50519 -5.43316 O 17 GLY
74 O74 -0.873638 1.50419 -5.43524 O 17 GLY
75 O75 0.12636 1.50319 -5.43731 O 17 GLY
76 U76 -3.87467 1.50296 -5.929 U 17 GLY
77 O77 -3.12747 -1.75531 -5.91591 O 18 GLY
78 O78 -2.12748 -1.75613 -5.91799 O 18 GLY
79 O79 -1.12748 -1.75694 -5.92006 O 18 GLY
80 O80 -0.127474 -1.75776 -5.92213 O 18 GLY
81 O81 0.872523 -1.75858 -5.92421 O 18 GLY
82 O82 -3.12707 -1.25533 -5.92052 O 18 GLY
83 O83 -2.12708 -1.25615 -5.92259 O 18 GLY
84 O84 -1.12708 -1.25697 -5.92466 O 18 GLY
85 O85 -0.127076 -1.25778 -5.92674 O 18 GLY
86 O86 0.872922 -1.2586 -5.92881 O 18 GLY
87 O87 -3.12623 -1.50072 -5.41824 O 18 GLY
88 O88 -2.12623 -1.50154 -5.42031 O 18 GLY
89 O89 -1.12624 -1.50235 -5.42238 O 18 GLY
90 O90 -0.126237 -1.50317 -5.42446 O 18 GLY
91 O91 0.873761 -1.50398 -5.42653 O 18 GLY
92 U92 -3.12727 -1.50532 -5.91821 U 18 GLY
93 H93 -3.49896 1.00101 -5.00067 H 19 GLY
94 H94 0.50104 0.99823 -4.99885 H 19 GLY
95 H95 0.499658 -1.00177 -5.00058 H 19 GLY
96 H96 -3.50034 -0.998986 -5.0024 H 19 GLY
@<TRIPOS>BOND
1 1 16 1
2 2 21 1
3 7 43 1
4 7 47 1
5 10 44 1
6 10 46 1
7 12 17 1
8 16 1 1
9 17 12 1
10 18 41 1
11 21 2 1
12 23 43 1
13 23 44 1
14 24 48 1
15 27 49 1
16 28 50 1
17 41 18 1
18 43 7 1
19 43 23 1
20 44 10 1
21 44 23 1
22 46 10 1
23 46 48 1
24 47 7 1
25 47 49 1
26 48 46 1
27 48 24 1
28 49 47 1
29 49 27 1
30 50 28 1
31 51 93 1
32 52 61 1
33 53 96 1
34 54 82 1
35 56 94 1
36 57 65 1
37 58 95 1
38 59 86 1
39 61 52 1
40 65 57 1
41 82 54 1
42 86 59 1
43 93 51 1
44 94 56 1
45 95 58 1
46 96 53 1
