#
#
#

#
#

@<TRIPOS>MOLECULE
Panda
96 118
SMALL
NO CHARGES


@<TRIPOS>ATOM
1 O1 -2.08876 -0.0344604 2.35715 O 0 ASP
2 O2 -0.971485 -0.00874159 1.35664 O 0 ASP
3 U3 0.145793 0.0169772 0.356121 U 0 ASP
4 C4 0.0244602 1.59838 1.49283 C 1 ASN
5 C5 -0.056735 1.29994 -2.99653 C 1 ASN
6 C6 -0.0296699 1.39942 -1.50008 C 1 ASN
7 C7 -0.00260484 1.4989 -0.00362435 C 1 ASN
8 C8 0.0175494 -2.06647 -2.94306 C 2 ASP
9 C9 0.00730798 -1.7836 -1.47001 C 2 ASP
10 C10 -0.00293341 -1.50072 0.00304244 C 2 ASP
11 C11 -0.0131748 -1.21785 1.47609 C 2 ASP
12 O12 -5.31713 1.00159 -3.57292e-005 O 3 ARG
13 O13 -4.51168 0.992295 0.592564 O 3 ARG
14 O14 -3.70624 0.982998 1.18516 O 3 ARG
15 O15 -2.9008 0.973701 1.77776 O 3 ARG
16 O16 -2.09535 0.964404 2.37036 O 3 ARG
17 C17 -5.30228 0.00151696 0.00139058 C 4 ASN
18 C18 -6.30228 -0.00100469 -1.90236e-005 C 4 ASN
19 U19 -7.30227 -0.00352635 -0.00142863 U 4 ASN
20 C20 -0.86152 -0.368155 -0.716601 C 5 ARG
21 C21 0.135137 -0.0028684 0.343229 C 5 ARG
22 C22 1.13179 0.362418 1.40306 C 5 ARG
23 O23 0.498899 -0.000113226 0.000200148 O 5 ARG
24 C24 -3.00454 -1.00008 -1.15103 C 6 GLY
25 C25 -3.00137 -8.43159e-005 -1.1505 C 6 GLY
26 C26 -2.99821 0.999911 -1.14997 C 6 GLY
27 C27 -2.99505 1.99991 -1.14944 C 6 GLY
28 C28 -0.00321335 0.00454544 4.49545 C 7 ASN
29 C29 0.917892 0.00723381 4.10614 C 7 ASN
30 C30 0.911134 1.50721 4.10051 C 7 ASN
31 C31 -0.913731 -1.50096 4.12882 C 7 ASN
32 C32 -0.920488 -0.000983257 4.12319 C 7 ASN
33 U33 -1.00341 6.61e-005 4.50238 U 7 ASN
34 U34 0.00129178 -0.995437 4.4992 U 7 ASN
35 H35 0.0766786 1.27649 2.73766 H 8 ARG
36 H36 0.582678 1.29489 3.38389 H 9 ARG
37 H37 0.0494326 0.951013 2.00101 H 10 ARG
38 H38 -1.1715 -0.858914 2.72461 H 11 ARG
39 H39 -1.2035 -1.30727 3.40277 H 12 ARG
40 H40 -0.623467 -0.822823 2.15134 H 13 ARG
41 H41 -6.29979 -0.999621 0.00242315 H 14 GLY
42 H42 0.000357627 -0.000494329 -0.000620664 H 14 GLY
43 H43 0.500558 1.49944 -0.00186946 H 14 GLY
44 H44 0.500145 -1.50056 0.000257214 H 14 GLY
45 H45 0.000357627 -0.000494329 -0.000620664 H 14 GLY
46 H46 -0.499853 -1.50043 0.000627181 H 14 GLY
47 H47 -0.499437 1.49957 -0.00149937 H 14 GLY
48 H48 -3.00021 -1.00089 -1.1488 H 14 GLY
49 H49 -2.99979 1.99911 -1.15093 H 14 GLY
50 H50 0.00195752 -0.497305 4.49973 H 14 GLY
51 O51 -3.49614 0.495548 -4.99871 O 15 ASP
52 O52 -3.87191 0.483433 -5.92534 O 15 ASP
53 O53 -3.48543 -0.504355 -4.98998 O 15 ASP
54 O54 -3.09981 -0.508186 -5.90173 O 15 ASP
55 U55 -4.49629 0.484769 -5.00631 U 15 ASP
56 O56 0.513405 0.500569 -5.00214 O 16 ASP
57 O57 0.12847 0.507101 -5.92506 O 16 ASP
58 O58 0.515567 -0.499396 -5.01012 O 16 ASP
59 O59 0.892172 -0.491277 -5.9256 O 16 ASP
60 U60 -0.486822 0.498389 -4.99996 U 16 ASP
61 O61 -3.87047 1.23343 -5.94513 O 17 ARG
62 O62 -2.87053 1.23857 -5.93601 O 17 ARG
63 O63 -1.87058 1.24371 -5.92689 O 17 ARG
64 O64 -0.870629 1.24884 -5.91777 O 17 ARG
65 O65 0.129317 1.25398 -5.90864 O 17 ARG
66 O66 -3.87302 1.73342 -5.94723 O 17 ARG
67 O67 -2.87307 1.73856 -5.93811 O 17 ARG
68 O68 -1.87313 1.74369 -5.92898 O 17 ARG
69 O69 -0.873178 1.74883 -5.91986 O 17 ARG
70 O70 0.126768 1.75397 -5.91074 O 17 ARG
71 O71 -3.87632 1.4855 -5.4462 O 17 ARG
72 O72 -2.87637 1.49064 -5.43708 O 17 ARG
73 O73 -1.87643 1.49577 -5.42796 O 17 ARG
74 O74 -0.876477 1.50091 -5.41884 O 17 ARG
75 O75 0.123469 1.50605 -5.40972 O 17 ARG
76 U76 -3.87174 1.48343 -5.94618 U 17 ARG
77 O77 -3.08921 -1.75969 -5.91788 O 18 ARG
78 O78 -2.08925 -1.75477 -5.92463 O 18 ARG
79 O79 -1.08929 -1.74985 -5.93138 O 18 ARG
80 O80 -0.0893157 -1.74493 -5.93812 O 18 ARG
81 O81 0.91065 -1.74001 -5.94487 O 18 ARG
82 O82 -3.09162 -1.25976 -5.90983 O 18 ARG
83 O83 -2.09166 -1.25484 -5.91658 O 18 ARG
84 O84 -1.09169 -1.24992 -5.92333 O 18 ARG
85 O85 -0.0917207 -1.245 -5.93007 O 18 ARG
86 O86 0.908245 -1.24008 -5.93682 O 18 ARG
87 O87 -3.08701 -1.51776 -5.41393 O 18 ARG
88 O88 -2.08704 -1.51284 -5.42068 O 18 ARG
89 O89 -1.08708 -1.50792 -5.42743 O 18 ARG
90 O90 -0.0871081 -1.503 -5.43417 O 18 ARG
91 O91 0.912858 -1.49808 -5.44092 O 18 ARG
92 U92 -3.09042 -1.50972 -5.91386 U 18 ARG
93 H93 -3.49933 0.999605 -5.00216 H 19 GLY
94 H94 0.500665 1.00258 -5.00266 H 19 GLY
95 H95 0.502162 -0.997408 -4.99854 H 19 GLY
96 H96 -3.49784 -1.00039 -4.99804 H 19 GLY
@<TRIPOS>BOND
1 1 2 2
2 4 7 2
3 6 5 2
4 7 6 2
5 8 9 2
6 9 10 2
7 10 11 2
8 12 13 2
9 13 14 2
10 14 15 2
11 15 16 2
12 17 18 2
13 20 21 2
14 21 23 2
15 21 22 2
16 24 25 2
17 25 26 2
18 26 27 2
19 28 32 2
20 28 29 2
21 29 30 2
22 32 31 2
23 51 53 2
24 51 52 2
25 53 54 2
26 56 58 2
27 56 57 2
28 58 59 2
29 61 66 2
30 61 71 2
31 61 62 2
32 62 67 2
33 62 72 2
34 68 63 2
35 69 64 2
36 69 70 2
37 70 65 2
38 70 75 2
39 72 73 2
40 73 68 2
41 73 74 2
42 74 69 2
43 77 82 2
44 77 87 2
45 77 78 2
46 78 83 2
47 78 88 2
48 84 79 2
49 85 80 2
50 85 86 2
51 86 81 2
52 86 91 2
53 88 89 2
54 89 84 2
55 89 90 2
56 90 85 2
57 1 16 1
58 2 21 1
59 4 37 1
60 7 43 1
61 7 47 1
62 10 44 1
63 10 46 1
64 11 40 1
65 12 17 1
66 16 1 1
67 17 12 1
68 18 41 1
69 21 2 1
70 23 43 1
71 23 44 1
72 24 48 1
73 27 49 1
74 28 50 1
75 30 36 1
76 31 39 1
77 35 36 1
78 35 37 1
79 36 30 1
80 36 35 1
81 37 35 1
82 37 4 1
83 38 39 1
84 38 40 1
85 39 31 1
86 39 38 1
87 40 38 1
88 40 11 1
89 41 18 1
90 43 7 1
91 43 23 1
92 44 10 1
93 44 23 1
94 46 10 1
95 46 48 1
96 47 7 1
97 47 49 1
98 48 46 1
99 48 24 1
100 49 47 1
101 49 27 1
102 50 28 1
103 51 93 1
104 52 61 1
105 53 96 1
106 54 82 1
107 56 94 1
108 57 65 1
109 58 95 1
110 59 86 1
111 61 52 1
112 65 57 1
113 82 54 1
114 86 59 1
115 93 51 1
116 94 56 1
117 95 58 1
118 96 53 1
