#
#
#

#
#

@<TRIPOS>MOLECULE
Panda
96 46
SMALL
NO CHARGES


@<TRIPOS>ATOM
1 O1 -2.08876 -0.0344604 2.35715 O 0 GLY
2 O2 -0.971485 -0.00874159 1.35664 O 0 GLY
3 U3 0.145793 0.0169772 0.356121 U 0 GLY
4 C4 0.0244602 1.59838 1.49283 C 1 GLY
5 C5 -0.056735 1.29994 -2.99653 C 1 GLY
6 C6 -0.0296699 1.39942 -1.50008 C 1 GLY
7 C7 -0.00260484 1.4989 -0.00362435 C 1 GLY
8 C8 0.0175494 -2.06647 -2.94306 C 2 GLY
9 C9 0.00730798 -1.7836 -1.47001 C 2 GLY
10 C10 -0.00293341 -1.50072 0.00304244 C 2 GLY
11 C11 -0.0131748 -1.21785 1.47609 C 2 GLY
12 O12 -5.31713 1.00159 -3.57292e-005 O 3 GLY
13 O13 -4.51168 0.992295 0.592564 O 3 GLY
14 O14 -3.70624 0.982998 1.18516 O 3 GLY
15 O15 -2.9008 0.973701 1.77776 O 3 GLY
16 O16 -2.09535 0.964404 2.37036 O 3 GLY
17 C17 -5.30228 0.00151696 0.00139058 C 4 GLY
18 C18 -6.30228 -0.00100469 -1.90236e-005 C 4 GLY
19 U19 -7.30227 -0.00352635 -0.00142863 U 4 GLY
20 C20 -0.86152 -0.368155 -0.716601 C 5 GLY
21 C21 0.135137 -0.0028684 0.343229 C 5 GLY
22 C22 1.13179 0.362418 1.40306 C 5 GLY
23 O23 0.498899 -0.000113226 0.000200148 O 5 GLY
24 C24 -3.00454 -1.00008 -1.15103 C 6 GLY
25 C25 -3.00137 -8.43159e-005 -1.1505 C 6 GLY
26 C26 -2.99821 0.999911 -1.14997 C 6 GLY
27 C27 -2.99505 1.99991 -1.14944 C 6 GLY
28 C28 -0.00321335 0.00454544 4.49545 C 7 GLY
29 C29 0.917892 0.00723381 4.10614 C 7 GLY
30 C30 0.911134 1.50721 4.10051 C 7 GLY
31 C31 -0.913731 -1.50096 4.12882 C 7 GLY
32 C32 -0.920488 -0.000983257 4.12319 C 7 GLY
33 U33 -1.00341 6.61e-005 4.50238 U 7 GLY
34 U34 0.00129178 -0.995437 4.4992 U 7 GLY
35 H35 0.0766786 1.27649 2.73766 H 8 GLY
36 H36 0.582678 1.29489 3.38389 H 9 GLY
37 H37 0.0494326 0.951013 2.00101 H 10 GLY
38 H38 -1.1715 -0.858914 2.72461 H 11 GLY
39 H39 -1.2035 -1.30727 3.40277 H 12 GLY
40 H40 -0.623467 -0.822823 2.15134 H 13 GLY
41 H41 -6.29979 -0.999621 0.00242315 H 14 GLY
42 H42 0.000357627 -0.000494329 -0.000620664 H 14 GLY
43 H43 0.500558 1.49944 -0.00186946 H 14 GLY
44 H44 0.500145 -1.50056 0.000257214 H 14 GLY
45 H45 0.000357627 -0.000494329 -0.000620664 H 14 GLY
46 H46 -0.499853 -1.50043 0.000627181 H 14 GLY
47 H47 -0.499437 1.49957 -0.00149937 H 14 GLY
48 H48 -3.00021 -1.00089 -1.1488 H 14 GLY
49 H49 -2.99979 1.99911 -1.15093 H 14 GLY
50 H50 0.00195752 -0.497305 4.49973 H 14 GLY
51 O51 -3.49614 0.495548 -4.99871 O 15 GLY
52 O52 -3.87191 0.483433 -5.92534 O 15 GLY
53 O53 -3.48543 -0.504355 -4.98998 O 15 GLY
54 O54 -3.09981 -0.508186 -5.90173 O 15 GLY
55 U55 -4.49629 0.484769 -5.00631 U 15 GLY
56 O56 0.513405 0.500569 -5.00214 O 16 GLY
57 O57 0.12847 0.507101 -5.92506 O 16 GLY
58 O58 0.515567 -0.499396 -5.01012 O 16 GLY
59 O59 0.892172 -0.491277 -5.9256 O 16 GLY
60 U60 -0.486822 0.498389 -4.99996 U 16 GLY
61 O61 -3.87047 1.23343 -5.94513 O 17 GLY
62 O62 -2.87053 1.23857 -5.93601 O 17 GLY
63 O63 -1.87058 1.24371 -5.92689 O 17 GLY
64 O64 -0.870629 1.24884 -5.91777 O 17 GLY
65 O65 0.129317 1.25398 -5.90864 O 17 GLY
66 O66 -3.87302 1.73342 -5.94723 O 17 GLY
67 O67 -2.87307 1.73856 -5.93811 O 17 GLY
68 O68 -1.87313 1.74369 -5.92898 O 17 GLY
69 O69 -0.873178 1.74883 -5.91986 O 17 GLY
70 O70 0.126768 1.75397 -5.91074 O 17 GLY
71 O71 -3.87632 1.4855 -5.4462 O 17 GLY
72 O72 -2.87637 1.49064 -5.43708 O 17 GLY
73 O73 -1.87643 1.49577 -5.42796 O 17 GLY
74 O74 -0.876477 1.50091 -5.41884 O 17 GLY
75 O75 0.123469 1.50605 -5.40972 O 17 GLY
76 U76 -3.87174 1.48343 -5.94618 U 17 GLY
77 O77 -3.08921 -1.75969 -5.91788 O 18 GLY
78 O78 -2.08925 -1.75477 -5.92463 O 18 GLY
79 O79 -1.08929 -1.74985 -5.93138 O 18 GLY
80 O80 -0.0893157 -1.74493 -5.93812 O 18 GLY
81 O81 0.91065 -1.74001 -5.94487 O 18 GLY
82 O82 -3.09162 -1.25976 -5.90983 O 18 GLY
83 O83 -2.09166 -1.25484 -5.91658 O 18 GLY
84 O84 -1.09169 -1.24992 -5.92333 O 18 GLY
85 O85 -0.0917207 -1.245 -5.93007 O 18 GLY
86 O86 0.908245 -1.24008 -5.93682 O 18 GLY
87 O87 -3.08701 -1.51776 -5.41393 O 18 GLY
88 O88 -2.08704 -1.51284 -5.42068 O 18 GLY
89 O89 -1.08708 -1.50792 -5.42743 O 18 GLY
90 O90 -0.0871081 -1.503 -5.43417 O 18 GLY
91 O91 0.912858 -1.49808 -5.44092 O 18 GLY
92 U92 -3.09042 -1.50972 -5.91386 U 18 GLY
93 H93 -3.49933 0.999605 -5.00216 H 19 GLY
94 H94 0.500665 1.00258 -5.00266 H 19 GLY
95 H95 0.502162 -0.997408 -4.99854 H 19 GLY
96 H96 -3.49784 -1.00039 -4.99804 H 19 GLY
@<TRIPOS>BOND
1 1 16 1
2 2 21 1
3 7 43 1
4 7 47 1
5 10 44 1
6 10 46 1
7 12 17 1
8 16 1 1
9 17 12 1
10 18 41 1
11 21 2 1
12 23 43 1
13 23 44 1
14 24 48 1
15 27 49 1
16 28 50 1
17 41 18 1
18 43 7 1
19 43 23 1
20 44 10 1
21 44 23 1
22 46 10 1
23 46 48 1
24 47 7 1
25 47 49 1
26 48 46 1
27 48 24 1
28 49 47 1
29 49 27 1
30 50 28 1
31 51 93 1
32 52 61 1
33 53 96 1
34 54 82 1
35 56 94 1
36 57 65 1
37 58 95 1
38 59 86 1
39 61 52 1
40 65 57 1
41 82 54 1
42 86 59 1
43 93 51 1
44 94 56 1
45 95 58 1
46 96 53 1
