#
#
#

#
#

@<TRIPOS>MOLECULE
Panda
809 128
SMALL
NO CHARGES


@<TRIPOS>ATOM
1 C1 0.247614 0.00615367 0.00618149 C 0 GLU
2 C2 0.246205 0.379628 0.656577 C 0 GLU
3 C3 0.244795 0.753104 1.30698 C 0 GLU
4 C4 -0.752309 -0.00537659 0.0106349 C 0 GLU
5 C5 -0.755128 0.741574 1.31143 C 0 GLU
6 U6 -0.74949 -0.752326 -1.29016 U 0 GLU
7 C7 2.74646 -0.0108801 -0.013676 C 1 GLU
8 C8 2.7377 0.314534 0.661993 C 1 GLU
9 C9 2.72895 0.639948 1.33766 C 1 GLU
10 C10 3.7463 0.00638624 -0.00903192 C 1 GLU
11 C11 3.72879 0.657214 1.34231 C 1 GLU
12 C12 1.49972 1.2968 2.48437 C 2 GLU
13 C13 1.53634 1.58363 1.79236 C 2 GLU
14 C14 1.57296 1.87046 1.10034 C 2 GLU
15 C15 1.00108 2.33285 1.26173 C 2 GLU
16 C16 2.27907 2.09657 1.23142 C 2 GLU
17 C17 0.437267 2.78437 1.41904 C 2 GLU
18 C18 2.97358 2.31544 1.35889 C 2 GLU
19 C19 1.42649 0.723135 3.86841 C 2 GLU
20 H20 1.02211 1.14255 1.01082 H 3 GLU
21 H21 2.03631 1.09001 0.975619 H 4 GLU
22 H22 2.49471 1.29379 2.486 H 5 GLU
23 C23 1.50355 4.93797 1.1384 C 6 GLU
24 C24 1.49638 4.32817 2.50883 C 6 GLU
25 C25 1.48921 3.71836 3.87926 C 6 GLU
26 U26 0.497037 4.29726 2.48985 U 6 GLU
27 O27 -0.496147 3.29184 -0.794795 O 7 GLU
28 O28 0.336488 3.26783 -0.241495 O 7 GLU
29 U29 -0.517881 2.29213 -0.805468 U 7 GLU
30 U30 0.0572459 3.2887 -1.62771 U 7 GLU
31 O31 3.50304 3.28904 -0.791924 O 8 GLU
32 O32 4.28531 3.27854 -0.16908 O 8 GLU
33 U33 3.48987 2.28912 -0.792238 U 8 GLU
34 U34 4.12583 3.28108 -1.57427 U 8 GLU
35 O35 0.345901 4.01044 -0.273628 O 9 GLU
36 O36 1.34585 4.01617 -0.265845 O 9 GLU
37 O37 2.34581 4.0219 -0.25806 O 9 GLU
38 O38 3.34576 4.02764 -0.250275 O 9 GLU
39 O39 4.34572 4.03337 -0.242491 O 9 GLU
40 O40 0.343269 4.50957 -0.303058 O 9 GLU
41 O41 1.34322 4.5153 -0.295274 O 9 GLU
42 O42 2.34317 4.52103 -0.28749 O 9 GLU
43 O43 3.34313 4.52676 -0.279705 O 9 GLU
44 O44 4.34309 4.53249 -0.271921 O 9 GLU
45 O45 0.340529 4.28941 0.210775 O 9 GLU
46 O46 1.34048 4.29514 0.218559 O 9 GLU
47 O47 2.34044 4.30087 0.226344 O 9 GLU
48 O48 3.34039 4.30661 0.234129 O 9 GLU
49 O49 4.34035 4.31234 0.241912 O 9 GLU
50 U50 0.344585 4.26 -0.288343 U 9 GLU
51 O51 1.5034 3.27601 2.49509 O 10 GLU
52 H52 -1.75 0 0 H 11 GLU
53 H53 4.75 0 0 H 12 GLU
54 H54 -0.5 2.3 -0.8 H 13 GLU
55 H55 3.5 2.3 -0.8 H 14 GLU
56 H56 2.5 4.3 2.5 H 15 GLU
57 C57 3.76244 -3.14619 -1.35918 C 16 GLU
58 C58 3.75281 -2.49801 -0.00648916 C 16 GLU
59 C59 3.74318 -1.84983 1.3462 C 16 GLU
60 C60 6.76237 -3.14275 -1.33948 C 16 GLU
61 C61 6.75274 -2.49456 0.0132123 C 16 GLU
62 C62 6.74312 -1.84638 1.3659 C 16 GLU
63 H63 2.75 -2.5 0 H 17 GLU
64 H64 7.75 -2.5 0 H 18 GLU
65 O65 4.55524 -13.295 1.50166 O 19 GLU
66 O66 5.69745 -13.3501 2.47238 O 19 GLU
67 U67 3.41302 -13.24 0.53093 U 19 GLU
68 C68 3.74871 -12.666 -1.3484 C 20 GLU
69 C69 3.74785 -12.0015 -0.00360673 C 20 GLU
70 C70 3.74699 -11.337 1.34118 C 20 GLU
71 U71 2.74786 -11.9974 -0.00628178 U 20 GLU
72 C72 3.70712 -14.2084 -1.29013 C 21 GLU
73 C73 3.76328 -14.9907 -0.0115412 C 21 GLU
74 C74 3.81944 -15.773 1.26705 C 21 GLU
75 U75 2.76402 -15.0028 0.0249336 U 21 GLU
76 U76 3.80072 -15.5122 0.840855 U 21 GLU
77 O77 5.82324 -12.3735 2.34072 O 22 GLU
78 O78 6.62981 -12.3997 1.75015 O 22 GLU
79 O79 7.43637 -12.4259 1.15958 O 22 GLU
80 O80 8.24293 -12.4521 0.569017 O 22 GLU
81 O81 9.04949 -12.4783 -0.0215509 O 22 GLU
82 C82 10.0604 -13.5025 -0.0104442 C 23 GLU
83 C83 9.06087 -13.4718 -0.0109949 C 23 GLU
84 U84 10.0297 -14.502 -0.00291822 U 23 GLU
85 U85 11.0599 -13.5331 -0.0098936 U 23 GLU
86 C86 4.7334 -13.4706 -0.564506 C 24 GLU
87 C87 3.57872 -13.4811 0.392881 C 24 GLU
88 C88 2.42403 -13.4917 1.35027 C 24 GLU
89 O89 3.26001 -13.5031 0.00824911 O 24 GLU
90 C90 6.73772 -13.4948 -1.15788 C 25 GLU
91 C91 6.75227 -12.4949 -1.15178 C 25 GLU
92 H92 10.05 -14.5 1.0679e-07 H 26 GLU
93 U93 3.75001 -13.5 -9.19241e-07 U 26 GLU
94 U94 3.25001 -12 -9.55266e-07 U 26 GLU
95 U95 3.25 -15 -1.41564e-06 U 26 GLU
96 U96 2.75001 -9 -1.35258e-06 U 26 GLU
97 U97 4.25 -15 -1.25336e-06 U 26 GLU
98 U98 4.25001 -12 -7.29193e-07 U 26 GLU
99 U99 6.75 -14.5 -1.14999 U 26 GLU
100 U100 6.75 -11.5 -1.15 U 26 GLU
101 O101 8.24741 -6.57608 0.11664 O 27 GLU
102 O102 9.73985 -6.61638 0.261561 O 27 GLU
103 U103 6.75497 -6.53577 -0.028282 U 27 GLU
104 C104 6.75244 -5.63938 -1.34999 C 28 GLU
105 C105 6.74932 -4.99061 0.00245055 C 28 GLU
106 C106 6.74621 -4.34184 1.35489 C 28 GLU
107 U107 5.74933 -4.99022 -3.96671e-05 U 28 GLU
108 C108 6.75459 -8.71462 -1.31863 C 29 GLU
109 C109 6.75164 -8.00518 0.00298065 C 29 GLU
110 C110 6.74868 -7.29573 1.3246 C 29 GLU
111 U111 5.75166 -8.01088 0.00380336 U 29 GLU
112 U112 6.74967 -7.53222 0.88406 U 29 GLU
113 O113 9.83328 -5.62992 0.326347 O 30 GLU
114 O114 10.8301 -5.60232 0.251242 O 30 GLU
115 O115 11.8269 -5.57471 0.176137 O 30 GLU
116 O116 12.8237 -5.54711 0.101032 O 30 GLU
117 O117 13.8204 -5.5195 0.0259275 O 30 GLU
118 C118 13.0424 -6.4919 -0.00755169 C 31 GLU
119 C119 14.0418 -6.47986 0.026256 C 31 GLU
120 U120 13.0542 -7.49179 0.00112314 U 31 GLU
121 C121 6.79722 -7.19661 -1.3186 C 32 GLU
122 C122 6.75022 -6.52744 0.0230383 C 32 GLU
123 C123 6.70323 -5.85827 1.36468 C 32 GLU
124 O124 6.25118 -6.51063 -0.00282475 O 32 GLU
125 C125 9.75952 -6.50528 -1.15057 C 33 GLU
126 C126 9.74827 -5.50534 -1.1498 C 33 GLU
127 H127 13.05 -7.5 1.0679e-07 H 34 GLU
128 U128 6.75001 -6.5 -9.19241e-07 U 34 GLU
129 U129 6.25001 -5 -9.55266e-07 U 34 GLU
130 U130 6.25 -7.99999 -1.41564e-06 U 34 GLU
131 U131 5.75001 -2 -1.35258e-06 U 34 GLU
132 U132 7.25 -7.99999 -1.25336e-06 U 34 GLU
133 U133 7.25001 -5 -7.29193e-07 U 34 GLU
134 U134 9.75 -7.5 -1.14999 U 34 GLU
135 U135 9.75 -4.5 -1.15 U 34 GLU
136 C136 -3.75869 -3.24568 -1.3075 C 35 GLU
137 C137 -3.75796 -2.49746 -0.00744463 C 35 GLU
138 C138 -3.75723 -1.74923 1.29262 C 35 GLU
139 C139 -0.758693 -3.24718 -1.30834 C 35 GLU
140 C140 -0.75796 -2.49895 -0.00827596 C 35 GLU
141 C141 -0.757227 -1.75072 1.29178 C 35 GLU
142 H142 -4.75 -2.5 0 H 36 GLU
143 H143 0.25 -2.5 0 H 37 GLU
144 O144 -2.58927 -13.3781 2.51807 O 38 GLU
145 O145 -1.38728 -13.3731 1.62076 O 38 GLU
146 U146 -0.18528 -13.3682 0.72344 U 38 GLU
147 C147 -0.718743 -12.7406 -1.30126 C 39 GLU
148 C148 -0.73991 -11.9957 0.000492815 C 39 GLU
149 C149 -0.761077 -11.2507 1.30224 C 39 GLU
150 U150 -1.73981 -12.0021 -0.0121046 U 39 GLU
151 C151 -0.71926 -14.2624 -1.31113 C 40 GLU
152 C152 -0.735766 -14.9972 -0.00354312 C 40 GLU
153 C153 -0.752271 -15.732 1.30404 C 40 GLU
154 U154 -1.7357 -14.9933 -0.0139492 U 40 GLU
155 U155 -0.746769 -15.4871 0.868181 U 40 GLU
156 O156 -5.99117 -12.4967 0.0713529 O 41 GLU
157 O157 -5.17515 -12.4697 0.648748 O 41 GLU
158 O158 -4.35913 -12.4428 1.22614 O 41 GLU
159 O159 -3.54311 -12.4159 1.80354 O 41 GLU
160 O160 -2.72709 -12.389 2.38093 O 41 GLU
161 C161 -6.05852 -13.4939 0.0316995 C 42 GLU
162 C162 -7.05808 -13.506 0.00458747 C 42 GLU
163 U163 -7.0457 -14.5059 -0.00415454 U 42 GLU
164 U164 -8.05764 -13.5181 -0.0225245 U 42 GLU
165 C165 -1.74507 -13.4808 -0.547929 C 43 GLU
166 C166 -0.575586 -13.6042 0.383255 C 43 GLU
167 C167 0.593893 -13.7275 1.31444 C 43 GLU
168 O168 -0.263976 -13.5049 0.00505972 O 43 GLU
169 C169 -3.76172 -13.496 -1.14572 C 44 GLU
170 C170 -3.75711 -12.4961 -1.13567 C 44 GLU
171 H171 -7.05 -14.5 1.0679e-07 H 45 GLU
172 U172 -0.750006 -13.5 -9.19241e-07 U 45 GLU
173 U173 -0.250005 -12 -9.55266e-07 U 45 GLU
174 U174 -0.250002 -15 -1.41564e-06 U 45 GLU
175 U175 0.249993 -9 -1.35258e-06 U 45 GLU
176 U176 -1.25 -15 -1.25336e-06 U 45 GLU
177 U177 -1.25001 -12 -7.29193e-07 U 45 GLU
178 U178 -3.75 -14.5 -1.14999 U 45 GLU
179 U179 -3.75 -11.5 -1.15 U 45 GLU
180 O180 -6.73946 -6.57603 0.404641 O 46 GLU
181 O181 -5.25825 -6.55785 0.168647 O 46 GLU
182 U182 -3.77704 -6.53966 -0.0673462 U 46 GLU
183 C183 -3.75982 -5.73661 -1.3016 C 47 GLU
184 C184 -3.74927 -4.99539 0.00241959 C 47 GLU
185 C185 -3.73872 -4.25417 1.30644 C 47 GLU
186 U186 -4.74925 -4.99169 0.00840966 U 47 GLU
187 C187 -3.77027 -8.74155 -1.30632 C 48 GLU
188 C188 -3.74898 -8.00804 0.00191878 C 48 GLU
189 C189 -3.72769 -7.27453 1.31016 C 48 GLU
190 U190 -4.74885 -7.99474 0.010732 U 48 GLU
191 U191 -3.73478 -7.51903 0.874082 U 48 GLU
192 O192 -10.8556 -5.50644 -0.0941991 O 49 GLU
193 O193 -9.85867 -5.52793 -0.0184918 O 49 GLU
194 O194 -8.86177 -5.54942 0.0572155 O 49 GLU
195 O195 -7.86487 -5.57091 0.132923 O 49 GLU
196 O196 -6.86797 -5.5924 0.20863 O 49 GLU
197 C197 -11.0349 -6.49565 -0.0165512 C 50 GLU
198 C198 -10.0352 -6.50204 0.00664314 C 50 GLU
199 U199 -10.0415 -7.50201 0.0035775 U 50 GLU
200 U200 -9.03544 -6.50843 0.0298374 U 50 GLU
201 C201 -3.88629 -7.23171 -1.25635 C 51 GLU
202 C202 -3.74051 -6.51722 0.0544735 C 51 GLU
203 C203 -3.59473 -5.80273 1.3653 C 51 GLU
204 O204 -3.2457 -6.49362 -0.0134201 O 51 GLU
205 C205 -6.74717 -6.49878 -1.15911 C 52 GLU
206 C206 -6.74639 -5.49909 -1.13442 C 52 GLU
207 H207 -10.05 -7.5 1.0679e-07 H 53 GLU
208 U208 -3.75001 -6.5 -9.19241e-07 U 53 GLU
209 U209 -3.25001 -5 -9.55266e-07 U 53 GLU
210 U210 -3.25 -7.99999 -1.41564e-06 U 53 GLU
211 U211 -2.75001 -2 -1.35258e-06 U 53 GLU
212 U212 -4.25 -7.99999 -1.25336e-06 U 53 GLU
213 U213 -4.25001 -5 -7.29193e-07 U 53 GLU
214 U214 -6.75 -7.5 -1.14999 U 53 GLU
215 U215 -6.75 -4.5 -1.15 U 53 GLU
216 C216 2.499 13.9867 5.49334 C 54 GLU
217 C217 2.50726 14.0958 6.23531 C 54 GLU
218 C218 2.51553 14.2049 6.97729 C 54 GLU
219 C219 1.49922 14.0061 5.50162 C 54 GLU
220 C220 1.51575 14.2243 6.98557 C 54 GLU
221 U221 1.48269 13.7879 4.01767 U 54 GLU
222 C222 4.99616 13.9986 5.49191 C 55 GLU
223 C223 4.99206 14.2506 6.1983 C 55 GLU
224 C224 4.98796 14.5026 6.90469 C 55 GLU
225 C225 5.99614 14.0012 5.49681 C 55 GLU
226 C226 5.98794 14.5051 6.9096 C 55 GLU
227 C227 3.74567 15.2997 8.01767 C 56 GLU
228 C228 3.70607 15.3902 7.27421 C 56 GLU
229 C229 3.66647 15.4808 6.53075 C 56 GLU
230 C230 2.96715 15.7508 6.60088 C 56 GLU
231 C231 4.25018 15.9556 6.55749 C 56 GLU
232 C232 2.27921 16.0126 6.66941 C 56 GLU
233 C233 4.82555 16.4191 6.5833 C 56 GLU
234 C234 3.82486 15.1186 9.50459 C 56 GLU
235 H235 3.20927 14.7062 6.67476 H 57 GLU
236 H236 4.1717 14.7494 6.5997 H 58 GLU
237 H237 4.75198 15.3003 8.00798 H 59 GLU
238 C238 3.73991 18.5207 6.5068 C 60 GLU
239 C239 3.75018 18.3181 7.99302 C 60 GLU
240 C240 3.76044 18.1155 9.47924 C 60 GLU
241 U241 2.75029 18.3036 7.99795 U 60 GLU
242 O242 1.7602 17.3036 4.7082 O 61 GLU
243 O243 2.52825 17.2842 4.0681 O 61 GLU
244 U244 1.73666 16.3039 4.71023 U 61 GLU
245 U245 1.12024 17.3171 3.93991 U 61 GLU
246 O246 5.73246 17.3001 4.71471 O 62 GLU
247 O247 6.51256 17.3304 4.08979 O 62 GLU
248 U248 5.75352 16.3006 4.69252 U 62 GLU
249 U249 5.10716 17.3042 3.93434 U 62 GLU
250 O250 2.51159 18.0466 4.10534 O 63 GLU
251 O251 3.51151 18.0549 4.11461 O 63 GLU
252 O252 4.51143 18.0633 4.12387 O 63 GLU
253 O253 5.51136 18.0717 4.13313 O 63 GLU
254 O254 6.51128 18.0801 4.1424 O 63 GLU
255 O255 2.50747 18.5465 4.09647 O 63 GLU
256 O256 3.50739 18.5549 4.10573 O 63 GLU
257 O257 4.50732 18.5632 4.115 O 63 GLU
258 O258 5.50724 18.5716 4.12426 O 63 GLU
259 O259 6.50717 18.58 4.13352 O 63 GLU
260 O260 2.50482 18.3053 4.60081 O 63 GLU
261 O261 3.50474 18.3137 4.61007 O 63 GLU
262 O262 4.50467 18.3221 4.61933 O 63 GLU
263 O263 5.50459 18.3305 4.6286 O 63 GLU
264 O264 6.50451 18.3389 4.63786 O 63 GLU
265 U265 2.50953 18.2965 4.10091 U 63 GLU
266 O266 3.74897 17.2739 7.99606 O 64 GLU
267 H267 0.5 14 5.5 H 65 GLU
268 H268 7 14 5.5 H 66 GLU
269 H269 1.75 16.3 4.7 H 67 GLU
270 H270 5.75 16.3 4.7 H 68 GLU
271 H271 4.75 18.3 8 H 69 GLU
272 O272 7.3237 10.1295 6.28381 O 70 GLU
273 O273 8.79304 10.1151 6.5852 O 70 GLU
274 U274 5.85436 10.1439 5.98241 U 70 GLU
275 C275 5.99469 11.0079 4.08068 C 71 GLU
276 C276 6.00015 11.5035 5.49641 C 71 GLU
277 C277 6.00561 11.9992 6.91215 C 71 GLU
278 U278 5.00026 11.4912 5.50458 U 71 GLU
279 C279 6.00355 7.84827 4.15175 C 72 GLU
280 C280 5.99687 8.49398 5.50564 C 72 GLU
281 C281 5.9902 9.13969 6.85952 C 72 GLU
282 U282 4.99691 8.4987 5.49845 U 72 GLU
283 U283 5.99243 8.92445 6.40823 U 72 GLU
284 O284 8.89161 11.0963 6.52318 O 73 GLU
285 O285 9.73648 11.0694 5.98888 O 73 GLU
286 O286 10.5813 11.0426 5.45457 O 73 GLU
287 O287 11.4262 11.0157 4.92027 O 73 GLU
288 O288 12.2711 10.9888 4.38596 O 73 GLU
289 C289 12.3053 9.99805 5.49012 C 74 GLU
290 C290 12.2734 9.98229 4.49076 C 74 GLU
291 U291 12.2971 8.99821 5.50615 U 74 GLU
292 U292 13.3047 9.9894 5.45836 U 74 GLU
293 C293 6.45762 9.53081 4.31738 C 75 GLU
294 C294 5.97869 10.0438 5.64307 C 75 GLU
295 C295 5.49976 10.5568 6.96876 C 75 GLU
296 O296 5.50487 9.98928 5.493 O 75 GLU
297 C297 9.00629 9.99708 4.33731 C 76 GLU
298 C298 9.01424 10.997 4.3504 C 76 GLU
299 H299 12.3 9 5.5 H 77 GLU
300 U300 6.00001 10 5.5 U 77 GLU
301 U301 5.50001 11.5 5.5 U 77 GLU
302 U302 5.5 8.50001 5.5 U 77 GLU
303 U303 5.00001 14.5 5.5 U 77 GLU
304 U304 6.5 8.50001 5.5 U 77 GLU
305 U305 6.50001 11.5 5.5 U 77 GLU
306 U306 9 9 4.35001 U 77 GLU
307 U307 9 12 4.35 U 77 GLU
308 O308 -0.77442 10.1027 7.63057 O 78 GLU
309 O309 0.374187 9.94596 6.67867 O 78 GLU
310 U310 1.52279 9.78918 5.72676 U 78 GLU
311 C311 1.55605 11.7262 6.98122 C 79 GLU
312 C312 1.3749 11.0211 2.5405 C 79 GLU
313 C313 1.43528 11.2561 4.02074 C 79 GLU
314 C314 1.49567 11.4912 5.50098 C 79 GLU
315 C315 1.65248 7.3506 2.72764 C 80 GLU
316 C316 1.57247 7.92061 4.1128 C 80 GLU
317 C317 1.49246 8.49062 5.49797 C 80 GLU
318 C318 1.41245 9.06064 6.88313 C 80 GLU
319 O319 -4.65096 10.9882 6.51539 O 81 GLU
320 O320 -3.689 11.0144 6.78731 O 81 GLU
321 O321 -2.72703 11.0406 7.05924 O 81 GLU
322 O322 -1.76507 11.0668 7.33116 O 81 GLU
323 O323 -0.803109 11.093 7.60309 O 81 GLU
324 C324 -4.77161 9.99977 6.51658 C 82 GLU
325 C325 -4.79153 10.0087 5.51682 C 82 GLU
326 U326 -4.81145 10.0176 4.51705 U 82 GLU
327 C327 0.706218 9.80374 4.60218 C 83 GLU
328 C328 1.59094 10.0184 5.7943 C 83 GLU
329 C329 2.47567 10.2331 6.98643 C 83 GLU
330 O330 1.99362 10.0025 5.49833 O 83 GLU
331 C331 -1.53276 10.0091 4.31221 C 84 GLU
332 C332 -1.52836 11.0091 4.30023 C 84 GLU
333 C333 1.50003 9.99991 9.99464 C 85 GLU
334 C334 1.98567 10.0225 10.8685 C 85 GLU
335 C335 1.98546 11.522 10.8299 C 85 GLU
336 C336 1.77221 8.47594 9.08171 C 85 GLU
337 C337 1.772 9.97544 9.04309 C 85 GLU
338 U338 1.38611 9.97431 9.00125 U 85 GLU
339 U339 1.50017 9.00024 10.0204 U 85 GLU
340 H340 1.73733 11.7445 8.92951 H 86 GLU
341 H341 1.94016 11.7461 9.92157 H 87 GLU
342 H342 1.70055 11.7815 7.90228 H 88 GLU
343 H343 1.42965 8.91994 8.21141 H 89 GLU
344 H344 2.11362 8.77875 8.45702 H 90 GLU
345 H345 1.5688 9.59132 7.67313 H 91 GLU
346 H346 -4.80564 9.00476 5.50524 H 92 GLU
347 H347 1.49535 9.99855 5.49997 H 92 GLU
348 H348 1.99682 11.4981 5.50151 H 92 GLU
349 H349 1.99386 8.49806 5.49739 H 92 GLU
350 H350 1.49535 9.99855 5.49997 H 92 GLU
351 H351 0.993864 8.49904 5.49844 H 92 GLU
352 H352 0.996823 11.499 5.50256 H 92 GLU
353 H353 -1.50685 9.00309 4.35176 H 92 GLU
354 H354 -1.50389 12.0031 4.35588 H 92 GLU
355 H355 1.49959 9.49236 9.99928 H 92 GLU
356 O356 -1.99265 10.488 0.502699 O 93 GLU
357 O357 -1.06895 10.5198 0.120926 O 93 GLU
358 O358 -1.97399 9.48886 0.464564 O 93 GLU
359 O359 -1.05955 9.49147 0.843752 O 93 GLU
360 U360 -1.99243 10.5261 -0.496805 U 93 GLU
361 O361 2.02994 10.4959 0.517834 O 94 GLU
362 O362 2.94971 10.4764 0.125856 O 94 GLU
363 O363 2.01339 9.49607 0.528584 O 94 GLU
364 O364 2.9317 9.48484 0.898138 O 94 GLU
365 U365 2.0199 10.4853 -0.482292 U 94 GLU
366 O366 -1.0746 11.2736 0.0758142 O 95 GLU
367 O367 -0.0748622 11.2581 0.0922147 O 95 GLU
368 O368 0.924883 11.2425 0.108616 O 95 GLU
369 O369 1.92463 11.2269 0.125018 O 95 GLU
370 O370 2.92438 11.2113 0.141418 O 95 GLU
371 O371 -1.06646 11.7731 0.0541054 O 95 GLU
372 O372 -0.0667216 11.7575 0.0705058 O 95 GLU
373 O373 0.933023 11.7419 0.0869074 O 95 GLU
374 O374 1.93277 11.7264 0.103309 O 95 GLU
375 O375 2.93252 11.7108 0.11971 O 95 GLU
376 O376 -1.07839 11.5452 0.564421 O 95 GLU
377 O377 -0.0786446 11.5296 0.580822 O 95 GLU
378 O378 0.921099 11.514 0.597223 O 95 GLU
379 O379 1.92085 11.4985 0.613625 O 95 GLU
380 O380 2.92059 11.4829 0.630026 O 95 GLU
381 U381 -1.07053 11.5234 0.0649598 U 95 GLU
382 O382 -1.10079 8.25335 0.825309 O 96 GLU
383 O383 -0.101286 8.2499 0.856377 O 96 GLU
384 O384 0.898226 8.24646 0.887446 O 96 GLU
385 O385 1.89774 8.24302 0.918514 O 96 GLU
386 O386 2.89725 8.23957 0.949582 O 96 GLU
387 O387 -1.09871 8.75321 0.813776 O 96 GLU
388 O388 -0.0992053 8.74977 0.844844 O 96 GLU
389 O389 0.900307 8.74632 0.875912 O 96 GLU
390 O390 1.89982 8.74288 0.906981 O 96 GLU
391 O391 2.89934 8.73944 0.938049 O 96 GLU
392 O392 -1.11525 8.51487 1.31917 O 96 GLU
393 O393 -0.115735 8.51143 1.35024 O 96 GLU
394 O394 0.883776 8.50798 1.3813 O 96 GLU
395 O395 1.88329 8.50454 1.41237 O 96 GLU
396 O396 2.8828 8.5011 1.44344 O 96 GLU
397 U397 -1.09975 8.50328 0.819543 U 96 GLU
398 H398 -2.0019 10.9929 0.510562 H 97 GLU
399 H399 1.99808 10.998 0.49894 H 97 GLU
400 H400 2.00064 8.99802 0.496345 H 97 GLU
401 H401 -1.99934 8.99289 0.507966 H 97 GLU
402 C402 4.75426 27.9941 10.9838 C 98 GLU
403 C403 4.77279 28.2637 11.6834 C 98 GLU
404 C404 4.79133 28.5333 12.3831 C 98 GLU
405 C405 3.75458 27.997 11.0092 C 98 GLU
406 C406 3.79166 28.5362 12.4084 C 98 GLU
407 U407 3.7175 27.4578 9.60993 U 98 GLU
408 C408 7.25677 28.0079 10.9794 C 99 GLU
409 C409 7.23947 28.3176 11.6623 C 99 GLU
410 C410 7.22216 28.6272 12.3452 C 99 GLU
411 C411 8.25647 28.0095 11.0041 C 99 GLU
412 C412 8.22185 28.6288 12.3698 C 99 GLU
413 C413 6.01149 29.3037 13.5031 C 100 GLU
414 C414 5.97381 29.5028 12.7809 C 100 GLU
415 C415 5.93614 29.7018 12.0588 C 100 GLU
416 C416 5.22728 29.9346 12.16 C 100 GLU
417 C417 6.50258 30.1868 12.1629 C 100 GLU
418 C418 4.5301 30.1599 12.2584 C 100 GLU
419 C419 7.06108 30.6604 12.2643 C 100 GLU
420 C420 6.08685 28.9056 14.9473 C 100 GLU
421 H421 5.53247 28.9041 12.0884 H 101 GLU
422 H422 6.61041 29.1456 11.9436 H 102 GLU
423 H423 7.00813 29.2948 13.4919 H 103 GLU
424 C424 5.99237 32.7409 12.0526 C 104 GLU
425 C425 5.99912 32.327 13.4943 C 104 GLU
426 C426 6.00587 31.9132 14.9361 C 104 GLU
427 U427 4.9996 32.2963 13.4902 U 104 GLU
428 O428 3.98997 31.2972 10.211 O 105 GLU
429 O429 3.33032 31.2903 9.45948 O 105 GLU
430 U430 4.00902 30.2975 10.2035 U 105 GLU
431 U431 3.23864 31.278 10.8707 U 105 GLU
432 O432 8.00106 31.3079 10.1973 O 106 GLU
433 O433 7.25289 31.3044 9.53377 O 106 GLU
434 U434 8.00036 30.3079 10.2033 U 106 GLU
435 U435 7.33754 31.3129 10.9454 U 106 GLU
436 O436 3.25881 32.0423 9.48465 O 107 GLU
437 O437 4.2588 32.044 9.48804 O 107 GLU
438 O438 5.25879 32.0456 9.49143 O 107 GLU
439 O439 6.25879 32.0473 9.49482 O 107 GLU
440 O440 7.25879 32.0489 9.4982 O 107 GLU
441 O441 3.25795 32.5422 9.49569 O 107 GLU
442 O442 4.25794 32.5439 9.49908 O 107 GLU
443 O443 5.25793 32.5455 9.50247 O 107 GLU
444 O444 6.25793 32.5472 9.50586 O 107 GLU
445 O445 7.25792 32.5488 9.50925 O 107 GLU
446 O446 3.2567 32.2812 9.99005 O 107 GLU
447 O447 4.25669 32.2829 9.99343 O 107 GLU
448 O448 5.25669 32.2845 9.99682 O 107 GLU
449 O449 6.25668 32.2862 10.0002 O 107 GLU
450 O450 7.25668 32.2878 10.0036 O 107 GLU
451 U451 3.25838 32.2923 9.49017 U 107 GLU
452 O452 5.99731 31.2886 13.5017 O 108 GLU
453 H453 2.75 28 11 H 109 GLU
454 H454 9.25 28 11 H 110 GLU
455 H455 4 30.3 10.2 H 111 GLU
456 H456 8 30.3 10.2 H 112 GLU
457 H457 7 32.3 13.5 H 113 GLU
458 O458 9.20276 24.098 12.3316 O 114 GLU
459 O459 10.3144 24.132 13.3381 O 114 GLU
460 U460 8.0911 24.0641 11.3251 U 114 GLU
461 C461 8.25297 24.8507 9.65239 C 115 GLU
462 C462 8.25313 25.4938 11.0075 C 115 GLU
463 C463 8.2533 26.1369 12.3627 C 115 GLU
464 U464 7.25319 25.5036 11.003 U 115 GLU
465 C465 8.26367 21.8077 9.67411 C 116 GLU
466 C466 8.25677 22.5023 11.0036 C 116 GLU
467 C467 8.24986 23.1969 12.3331 C 116 GLU
468 U468 7.25678 22.4984 11.0004 U 116 GLU
469 U469 8.25216 22.9653 11.8899 U 116 GLU
470 O470 10.3477 25.1284 13.2688 O 117 GLU
471 O471 11.1532 25.0956 12.6771 O 117 GLU
472 O472 11.9586 25.0627 12.0853 O 117 GLU
473 O473 12.764 25.0299 11.4935 O 117 GLU
474 O474 13.5695 24.997 10.9018 O 117 GLU
475 C475 14.5641 23.9929 10.9807 C 118 GLU
476 C476 13.5641 23.998 10.9685 C 118 GLU
477 U477 14.5587 22.9933 11.0065 U 118 GLU
478 U478 14.5761 23.967 9.98113 U 118 GLU
479 C479 9.06379 23.5941 10.2337 C 119 GLU
480 C480 8.1261 24.1215 11.2789 C 119 GLU
481 C481 7.1884 24.6489 12.3242 C 119 GLU
482 O482 7.73595 23.9915 10.9946 O 119 GLU
483 C483 11.2371 24.0043 9.84061 C 120 GLU
484 C484 11.2552 25.0039 9.85987 C 120 GLU
485 H485 14.55 23 11 H 121 GLU
486 U486 8.25001 24 11 U 121 GLU
487 U487 7.75001 25.5 11 U 121 GLU
488 U488 7.75 22.5 11 U 121 GLU
489 U489 7.25001 28.5 11 U 121 GLU
490 U490 8.75 22.5 11 U 121 GLU
491 U491 8.75001 25.5 11 U 121 GLU
492 U492 11.25 23 9.85001 U 121 GLU
493 U493 11.25 26 9.85 U 121 GLU
494 O494 1.68084 24.2347 13.3629 O 122 GLU
495 O495 2.75202 24.1209 12.319 O 122 GLU
496 U496 3.8232 24.0071 11.2752 U 122 GLU
497 C497 3.72295 26.0394 12.4235 C 123 GLU
498 C498 3.83262 24.4124 8.22933 C 123 GLU
499 C499 3.79607 24.9548 9.62738 C 123 GLU
500 C500 3.75951 25.4971 11.0254 C 123 GLU
501 C501 3.92372 22.1059 8.02848 C 124 GLU
502 C502 3.84049 22.3036 9.51306 C 124 GLU
503 C503 3.75726 22.5013 10.9976 C 124 GLU
504 C504 3.67403 22.699 12.4822 C 124 GLU
505 O505 -1.51127 24.9898 10.8016 O 125 GLU
506 O506 -0.708303 25.048 11.3947 O 125 GLU
507 O507 0.0946688 25.1062 11.9879 O 125 GLU
508 O508 0.89764 25.1645 12.5811 O 125 GLU
509 O509 1.70061 25.2227 13.1742 O 125 GLU
510 C510 -1.55028 23.9992 10.924 C 126 GLU
511 C511 -2.54856 23.992 10.9821 C 126 GLU
512 U512 -3.54685 23.9849 11.0401 U 126 GLU
513 C513 2.92443 23.6698 10.2057 C 127 GLU
514 C514 3.8786 24.0199 11.3088 C 127 GLU
515 C515 4.83278 24.37 12.412 C 127 GLU
516 O516 4.26019 23.9949 10.9867 O 127 GLU
517 C517 0.691983 23.9959 9.88708 C 128 GLU
518 C518 0.670967 24.9956 9.89592 C 128 GLU
519 C519 3.75811 24.0016 15.49 C 129 GLU
520 C520 4.69109 23.9893 15.1303 C 129 GLU
521 C521 4.71018 25.4892 15.1285 C 129 GLU
522 C522 2.83413 22.5128 15.0905 C 129 GLU
523 C523 2.85323 24.0127 15.0887 C 129 GLU
524 U524 2.75827 24.0143 15.465 U 129 GLU
525 U525 3.74538 23.0017 15.4912 U 129 GLU
526 H526 4.53544 25.5202 13.5753 H 130 GLU
527 H527 4.74726 25.4116 14.3518 H 131 GLU
528 H528 3.9896 25.4274 12.928 H 132 GLU
529 H529 2.69644 23.0223 13.7198 H 133 GLU
530 H530 2.68143 23.1116 14.59 H 134 GLU
531 H531 2.91556 22.7571 13.0713 H 135 GLU
532 H532 -2.54849 22.9958 11.0074 H 136 GLU
533 H533 3.75137 23.9967 10.999 H 136 GLU
534 H534 4.25115 25.4968 10.9984 H 136 GLU
535 H535 4.25158 22.4968 10.9981 H 136 GLU
536 H536 3.75137 23.9967 10.999 H 136 GLU
537 H537 3.25158 22.4966 10.9995 H 136 GLU
538 H538 3.25115 25.4966 10.9998 H 136 GLU
539 H539 0.749948 22.9964 9.85294 H 136 GLU
540 H540 0.749518 25.9964 9.85326 H 136 GLU
541 H541 3.75758 23.4962 15.4989 H 136 GLU
542 O542 0.258923 24.5085 5.96297 O 137 GLU
543 O543 -0.177658 24.5034 5.06332 O 137 GLU
544 O544 0.249689 23.5086 5.9731 O 137 GLU
545 O545 0.573814 23.4962 5.0378 O 137 GLU
546 U546 -0.739533 24.5183 6.02172 U 137 GLU
547 O547 4.27693 24.4923 6.01368 O 138 GLU
548 O548 3.83643 24.4868 5.11595 O 138 GLU
549 O549 4.27154 23.4924 6.02246 O 138 GLU
550 O550 4.59161 23.4824 5.08573 O 138 GLU
551 U551 3.27871 24.4983 6.07682 U 138 GLU
552 O552 -0.206853 25.2415 5.00164 O 139 GLU
553 O553 0.792856 25.2417 5.02563 O 139 GLU
554 O554 1.79257 25.2419 5.04962 O 139 GLU
555 O555 2.79229 25.2421 5.07362 O 139 GLU
556 O556 3.792 25.2423 5.09761 O 139 GLU
557 O557 -0.206824 25.7415 4.99632 O 139 GLU
558 O558 0.792885 25.7417 5.02032 O 139 GLU
559 O559 1.7926 25.7419 5.04431 O 139 GLU
560 O560 2.79232 25.7421 5.0683 O 139 GLU
561 O561 3.79203 25.7423 5.09229 O 139 GLU
562 O562 -0.218837 25.4968 5.49881 O 139 GLU
563 O563 0.780875 25.497 5.5228 O 139 GLU
564 O564 1.78059 25.4972 5.54679 O 139 GLU
565 O565 2.7803 25.4974 5.57079 O 139 GLU
566 O566 3.78001 25.4976 5.59478 O 139 GLU
567 U567 -0.206839 25.4915 4.99898 U 139 GLU
568 O568 0.579738 22.246 5.09305 O 140 GLU
569 O569 1.57955 22.2433 5.11185 O 140 GLU
570 O570 2.57937 22.2406 5.13066 O 140 GLU
571 O571 3.5792 22.2379 5.14947 O 140 GLU
572 O572 4.57902 22.2352 5.16827 O 140 GLU
573 O573 0.581772 22.7447 5.05658 O 140 GLU
574 O574 1.58159 22.742 5.07538 O 140 GLU
575 O575 2.58141 22.7392 5.09419 O 140 GLU
576 O576 3.58123 22.7365 5.113 O 140 GLU
577 O577 4.58105 22.7338 5.13181 O 140 GLU
578 O578 0.571473 22.5318 5.57339 O 140 GLU
579 O579 1.57129 22.5291 5.5922 O 140 GLU
580 O580 2.57111 22.5264 5.61101 O 140 GLU
581 O581 3.57093 22.5237 5.62981 O 140 GLU
582 O582 4.57075 22.521 5.64862 O 140 GLU
583 U583 0.580755 22.4953 5.07481 U 140 GLU
584 H584 0.248711 25.0043 5.98053 H 141 GLU
585 H585 4.24866 24.9932 5.99619 H 141 GLU
586 H586 4.2431 22.9932 5.99838 H 141 GLU
587 H587 0.243143 23.0043 5.98272 H 141 GLU
588 C588 6.99505 42.0081 16.4964 C 142 GLU
589 C589 6.99134 42.4163 17.1255 C 142 GLU
590 C590 6.98764 42.8246 17.7547 C 142 GLU
591 C591 5.9952 41.9916 16.5011 C 142 GLU
592 C592 5.98778 42.8081 17.7594 C 142 GLU
593 U593 6.00261 41.1752 15.2429 U 142 GLU
594 C594 9.48623 41.9904 16.4905 C 143 GLU
595 C595 9.47163 42.4111 17.1112 C 143 GLU
596 C596 9.45703 42.8318 17.732 C 143 GLU
597 C597 10.4858 42.0183 16.4951 C 143 GLU
598 C598 10.4566 42.8597 17.7366 C 143 GLU
599 C599 8.24871 43.2906 19.0077 C 144 GLU
600 C600 8.25334 43.6683 18.3598 C 144 GLU
601 C601 8.25798 44.046 17.7118 C 144 GLU
602 C602 7.61616 44.388 17.9066 C 144 GLU
603 C603 8.91584 44.3603 17.8997 C 144 GLU
604 C604 6.98412 44.7213 18.0963 C 144 GLU
605 C605 9.5635 44.6662 18.0827 C 144 GLU
606 C606 8.23945 42.5353 20.3036 C 144 GLU
607 H607 7.62585 43.405 17.5096 H 145 GLU
608 H608 8.79158 43.3676 17.4639 H 146 GLU
609 H609 9.24583 43.3092 19.0003 H 147 GLU
610 C610 8.22453 47.1088 17.7179 C 148 GLU
611 C611 8.25663 46.3304 18.9998 C 148 GLU
612 C612 8.28872 45.5521 20.2817 C 148 GLU
613 U613 7.25725 46.2954 19.0036 U 148 GLU
614 O614 6.2472 45.3049 15.7101 O 149 GLU
615 O615 5.49419 45.305 16.3681 O 149 GLU
616 U616 6.25379 44.305 15.7177 U 149 GLU
617 U617 6.90517 45.315 16.463 U 149 GLU
618 O618 10.2393 45.295 15.6987 O 150 GLU
619 O619 9.54714 45.2918 16.4204 O 150 GLU
620 U620 10.2456 44.295 15.7003 U 150 GLU
621 U621 10.961 45.3007 16.3909 U 150 GLU
622 O622 5.56155 46.0471 16.3866 O 151 GLU
623 O623 6.56153 46.0421 16.3819 O 151 GLU
624 O624 7.5615 46.0372 16.3772 O 151 GLU
625 O625 8.56149 46.0322 16.3726 O 151 GLU
626 O626 9.56146 46.0272 16.3679 O 151 GLU
627 O627 5.56411 46.5468 16.4029 O 151 GLU
628 O628 6.56408 46.5419 16.3982 O 151 GLU
629 O629 7.56406 46.5369 16.3936 O 151 GLU
630 O630 8.56404 46.5319 16.3889 O 151 GLU
631 O631 9.56402 46.527 16.3842 O 151 GLU
632 O632 5.56508 46.2806 16.8945 O 151 GLU
633 O633 6.56506 46.2757 16.8898 O 151 GLU
634 O634 7.56503 46.2707 16.8851 O 151 GLU
635 O635 8.56501 46.2657 16.8805 O 151 GLU
636 O636 9.56499 46.2608 16.8758 O 151 GLU
637 U637 5.56283 46.297 16.3947 U 151 GLU
638 O638 8.25611 45.2956 19.0096 O 152 GLU
639 H639 5 42 16.5 H 153 GLU
640 H640 11.5 42 16.5 H 154 GLU
641 H641 6.25 44.3 15.7 H 155 GLU
642 H642 10.25 44.3 15.7 H 156 GLU
643 H643 9.25 46.3 19 H 157 GLU
644 O644 11.6028 38.1586 17.6724 O 158 GLU
645 O645 12.8189 38.0952 18.5483 O 158 GLU
646 U646 10.3867 38.2219 16.7966 U 158 GLU
647 C647 10.5227 38.6819 15.2655 C 159 GLU
648 C648 10.4976 39.5225 16.5076 C 159 GLU
649 C649 10.4725 40.3631 17.7497 C 159 GLU
650 U650 9.4978 39.5065 16.4982 U 159 GLU
651 C651 10.48 35.8024 15.1722 C 160 GLU
652 C652 10.4881 36.4854 16.5077 C 160 GLU
653 C653 10.4961 37.1685 17.8431 C 160 GLU
654 U654 9.4884 36.5107 16.5008 U 160 GLU
655 U655 10.4934 36.9408 17.398 U 160 GLU
656 O656 12.9165 39.0968 18.4684 O 161 GLU
657 O657 13.8866 39.0693 18.2273 O 161 GLU
658 O658 14.8567 39.0419 17.9863 O 161 GLU
659 O659 15.8268 39.0144 17.7452 O 161 GLU
660 O660 16.797 38.9869 17.5041 O 161 GLU
661 C661 16.7953 37.999 16.5053 C 162 GLU
662 C662 16.8055 37.9906 17.5052 C 162 GLU
663 U663 16.7975 36.999 16.4969 U 162 GLU
664 U664 15.7954 37.9967 16.5155 U 162 GLU
665 C665 11.2591 37.4198 15.7126 C 163 GLU
666 C666 10.415 38.074 16.7659 C 163 GLU
667 C667 9.57086 38.7281 17.8192 C 163 GLU
668 O668 10.007 37.9956 16.4876 O 163 GLU
669 C669 13.4877 38.0046 15.3612 C 164 GLU
670 C670 13.5077 39.0042 15.3413 C 164 GLU
671 H671 16.8 37 16.5 H 165 GLU
672 U672 10.5 38 16.5 U 165 GLU
673 U673 10 39.5 16.5 U 165 GLU
674 U674 10 36.5 16.5 U 165 GLU
675 U675 9.50001 42.5 16.5 U 165 GLU
676 U676 11 36.5 16.5 U 165 GLU
677 U677 11 39.5 16.5 U 165 GLU
678 U678 13.5 37 15.35 U 165 GLU
679 U679 13.5 40 15.35 U 165 GLU
680 O680 3.1867 38.1276 17.6319 O 166 GLU
681 O681 4.61592 38.0348 17.1861 O 166 GLU
682 U682 6.04515 37.9421 16.7403 U 166 GLU
683 C683 5.92577 40.3011 17.7669 C 167 GLU
684 C684 6.16416 37.9368 13.9455 C 167 GLU
685 C685 6.08469 38.7249 15.2193 C 167 GLU
686 C686 6.00523 39.513 16.4931 C 167 GLU
687 C687 5.97005 35.7163 13.5962 C 168 GLU
688 C688 5.98308 36.1022 15.0457 C 168 GLU
689 C689 5.9961 36.488 16.4952 C 168 GLU
690 C690 6.00913 36.8738 17.9446 C 168 GLU
691 O691 -0.238292 38.9463 15.4874 O 169 GLU
692 O692 0.61107 38.9917 16.0133 O 169 GLU
693 O693 1.46043 39.0371 16.5391 O 169 GLU
694 O694 2.30979 39.0825 17.065 O 169 GLU
695 O695 3.15916 39.1279 17.5908 O 169 GLU
696 C696 -0.224439 37.9514 15.5102 C 170 GLU
697 C697 -0.293104 37.9953 16.5069 C 170 GLU
698 U698 -0.361768 38.0392 17.5036 U 170 GLU
699 C699 5.50045 37.4654 15.3931 C 171 GLU
700 C700 6.03297 37.9841 16.6959 C 171 GLU
701 C701 6.56548 38.5029 17.9987 C 171 GLU
702 O702 6.49463 37.9921 16.5041 O 171 GLU
703 C703 3.01143 38.0048 15.3314 C 172 GLU
704 C704 2.95713 39.0029 15.3611 C 172 GLU
705 C705 5.98791 38.0045 20.9847 C 173 GLU
706 C706 5.7295 37.9939 20.0188 C 173 GLU
707 C707 5.71966 39.4938 20.005 C 173 GLU
708 C708 5.50242 36.5093 21.8557 C 173 GLU
709 C709 5.49258 38.0092 21.8419 C 173 GLU
710 U710 5.85669 38.0128 21.9763 U 173 GLU
711 U711 5.99447 37.0046 20.994 U 173 GLU
712 H712 5.713 39.7191 19.0954 H 174 GLU
713 H713 5.37926 40.1905 19.7437 H 175 GLU
714 H714 5.87463 40.1431 18.5548 H 176 GLU
715 H715 5.77946 36.6866 19.9894 H 177 GLU
716 H716 5.62539 36.4747 20.9581 H 178 GLU
717 H717 5.88224 36.8311 18.9964 H 179 GLU
718 H718 -0.296128 36.9949 16.4926 H 180 GLU
719 H719 6.00321 37.9991 16.4956 H 180 GLU
720 H720 6.5022 39.4994 16.4958 H 180 GLU
721 H721 6.50421 36.4994 16.4959 H 180 GLU
722 H722 6.00321 37.9991 16.4956 H 180 GLU
723 H723 5.50421 36.4987 16.4954 H 180 GLU
724 H724 5.50221 39.4987 16.4953 H 180 GLU
725 H725 3.00444 36.997 15.3442 H 180 GLU
726 H726 3.00243 39.997 15.3441 H 180 GLU
727 H727 6.00137 37.4993 20.9956 H 180 GLU
728 O728 2.51834 38.4923 11.4822 O 181 GLU
729 O729 1.55147 38.4971 11.7374 O 181 GLU
730 O730 2.5216 37.4928 11.5137 O 181 GLU
731 O731 1.66611 37.4743 11.0159 O 181 GLU
732 U732 2.38389 38.523 12.4729 U 181 GLU
733 O733 6.52763 38.4948 11.4655 O 182 GLU
734 O734 5.6091 38.4888 11.8608 O 182 GLU
735 O735 6.52477 37.495 11.4438 O 182 GLU
736 O736 5.60506 37.5056 11.0777 O 182 GLU
737 U737 6.54113 38.4731 12.4654 U 182 GLU
738 O738 1.52528 39.2408 11.8038 O 183 GLU
739 O739 2.52528 39.2399 11.8015 O 183 GLU
740 O740 3.52527 39.239 11.7993 O 183 GLU
741 O741 4.52528 39.2381 11.797 O 183 GLU
742 O742 5.52527 39.2372 11.7948 O 183 GLU
743 O743 1.52576 39.7406 11.8171 O 183 GLU
744 O744 2.52576 39.7397 11.8149 O 183 GLU
745 O745 3.52575 39.7388 11.8126 O 183 GLU
746 O746 4.52576 39.7379 11.8104 O 183 GLU
747 O747 5.52575 39.737 11.8081 O 183 GLU
748 O748 1.52663 39.4774 12.3103 O 183 GLU
749 O749 2.52663 39.4765 12.308 O 183 GLU
750 O750 3.52663 39.4756 12.3058 O 183 GLU
751 O751 4.52663 39.4747 12.3035 O 183 GLU
752 O752 5.52662 39.4738 12.3013 O 183 GLU
753 U753 1.52552 39.4907 11.8104 U 183 GLU
754 O754 1.64185 36.2308 11.0654 O 184 GLU
755 O755 2.64111 36.2362 11.1035 O 184 GLU
756 O756 3.64037 36.2416 11.1415 O 184 GLU
757 O757 4.63963 36.2469 11.1796 O 184 GLU
758 O758 5.6389 36.2523 11.2176 O 184 GLU
759 O759 1.64097 36.7286 11.0182 O 184 GLU
760 O760 2.64022 36.734 11.0563 O 184 GLU
761 O761 3.63949 36.7393 11.0943 O 184 GLU
762 O762 4.63875 36.7447 11.1324 O 184 GLU
763 O763 5.63801 36.7501 11.1705 O 184 GLU
764 O764 1.62221 36.5268 11.5392 O 184 GLU
765 O765 2.62147 36.5322 11.5773 O 184 GLU
766 O766 3.62073 36.5375 11.6153 O 184 GLU
767 O767 4.61999 36.5429 11.6534 O 184 GLU
768 O768 5.61926 36.5483 11.6914 O 184 GLU
769 U769 1.64141 36.4797 11.0418 U 184 GLU
770 H770 2.49416 38.9918 11.5018 H 185 GLU
771 H771 6.49413 39.0032 11.4951 H 185 GLU
772 H772 6.49983 37.0032 11.4958 H 185 GLU
773 H773 2.49986 36.9918 11.5024 H 185 GLU
774 O774 5.30703 50.7513 19.3777 O 186 GLU
775 O775 6.78226 50.7664 19.1066 O 186 GLU
776 U776 8.25748 50.7816 18.8355 U 186 GLU
777 C777 8.27289 52.7427 17.713 C 187 GLU
778 C778 8.25032 51.9997 19.0159 C 187 GLU
779 C779 8.22776 51.2567 20.3187 C 187 GLU
780 U780 7.25044 52.0072 19.0028 U 187 GLU
781 C781 8.2683 49.7184 17.6846 C 188 GLU
782 C782 8.25969 48.9873 18.9944 C 188 GLU
783 C783 8.25108 48.2563 20.3041 C 188 GLU
784 U784 7.25975 48.9984 18.994 U 188 GLU
785 O785 1.3294 51.4724 18.2871 O 189 GLU
786 O786 2.28989 51.5411 18.5568 O 189 GLU
787 O787 3.25039 51.6098 18.8265 O 189 GLU
788 O788 4.21088 51.6784 19.0962 O 189 GLU
789 O789 5.17138 51.7471 19.3659 O 189 GLU
790 C790 1.24168 50.4911 18.2611 C 190 GLU
791 C791 1.9277 50.5088 18.9884 C 190 GLU
792 U792 1.93728 49.509 19.0038 U 190 GLU
793 U793 2.61371 50.5266 19.7158 U 190 GLU
794 U794 2.65522 50.5053 18.3024 U 190 GLU
795 C795 8.22874 51.2099 17.6919 C 191 GLU
796 C796 8.24476 50.4811 19.0028 C 191 GLU
797 C797 8.26077 49.7523 20.3138 C 191 GLU
798 O798 8.74399 50.5074 19.0113 O 191 GLU
799 C799 5.2563 50.5146 17.8334 C 192 GLU
800 C800 5.25882 51.5145 17.8415 C 192 GLU
801 H801 1.95 49.5 19 H 193 GLU
802 U802 8.24999 50.5 19 U 193 GLU
803 U803 8.74999 52 19 U 193 GLU
804 U804 8.75 49 19 U 193 GLU
805 U805 9.24999 55 19 U 193 GLU
806 U806 7.75 49 19 U 193 GLU
807 U807 7.74999 52 19 U 193 GLU
808 U808 5.25 49.5 17.85 U 193 GLU
809 U809 5.25 52.5 17.85 U 193 GLU
@<TRIPOS>BOND
1 3 20 4
2 5 141 4
3 9 21 4
4 11 59 4
5 14 20 4
6 14 21 4
7 19 25 4
8 20 3 4
9 20 14 4
10 21 9 4
11 21 14 4
12 24 51 4
13 25 19 4
14 25 316 4
15 51 24 4
16 59 70 4
17 59 11 4
18 62 106 4
19 70 59 4
20 106 62 4
21 138 185 4
22 141 149 4
23 141 5 4
24 149 141 4
25 185 138 4
26 218 235 4
27 220 311 4
28 224 236 4
29 226 277 4
30 229 235 4
31 229 236 4
32 234 240 4
33 235 218 4
34 235 229 4
35 236 224 4
36 236 229 4
37 239 266 4
38 240 234 4
39 240 502 4
40 266 239 4
41 277 226 4
42 311 342 4
43 311 220 4
44 316 25 4
45 318 345 4
46 335 341 4
47 336 344 4
48 340 341 4
49 340 342 4
50 341 335 4
51 341 340 4
52 342 340 4
53 342 311 4
54 343 344 4
55 343 345 4
56 344 336 4
57 344 343 4
58 345 343 4
59 345 318 4
60 404 421 4
61 406 497 4
62 410 422 4
63 412 463 4
64 415 421 4
65 415 422 4
66 420 426 4
67 421 404 4
68 421 415 4
69 422 410 4
70 422 415 4
71 425 452 4
72 426 420 4
73 426 688 4
74 452 425 4
75 463 412 4
76 497 528 4
77 497 406 4
78 502 240 4
79 504 531 4
80 521 527 4
81 522 530 4
82 526 527 4
83 526 528 4
84 527 521 4
85 527 526 4
86 528 526 4
87 528 497 4
88 529 530 4
89 529 531 4
90 530 522 4
91 530 529 4
92 531 529 4
93 531 504 4
94 590 607 4
95 592 683 4
96 596 608 4
97 598 649 4
98 601 607 4
99 601 608 4
100 606 612 4
101 607 590 4
102 607 601 4
103 608 596 4
104 608 601 4
105 611 638 4
106 612 606 4
107 612 783 4
108 638 611 4
109 649 598 4
110 683 714 4
111 683 592 4
112 688 426 4
113 690 717 4
114 707 713 4
115 708 716 4
116 712 713 4
117 712 714 4
118 713 707 4
119 713 712 4
120 714 712 4
121 714 683 4
122 715 716 4
123 715 717 4
124 716 708 4
125 716 715 4
126 717 715 4
127 717 690 4
128 783 612 4
