#
#
#

#
#

@<TRIPOS>MOLECULE
Panda
639 235
SMALL
NO CHARGES


@<TRIPOS>ATOM
1 C1 0.253299 -0.00792892 0.00173777 C 0 ALA
2 C2 0.270948 0.255988 0.703547 C 0 ALA
3 C3 0.288598 0.519905 1.40536 C 0 ALA
4 C4 -0.746383 -0.0080431 0.0269207 C 0 ALA
5 C5 -0.711085 0.519791 1.43054 C 0 ALA
6 C6 2.74452 -0.000586563 -0.0131242 C 1 ARG
7 C7 2.74005 0.347279 0.651307 C 1 ARG
8 C8 2.73559 0.695145 1.31574 C 1 ARG
9 C9 3.7444 -0.0107707 -0.00106967 C 1 ARG
10 C10 3.73546 0.684961 1.32779 C 1 ARG
11 C11 1.49526 1.2722 2.50135 C 2 ASN
12 C12 1.45931 1.55637 1.8082 C 2 ASN
13 C13 1.42335 1.84053 1.11505 C 2 ASN
14 C14 0.773788 2.17981 1.28784 C 2 ASN
15 C15 2.07229 2.20444 1.23058 C 2 ASN
16 C16 0.13422 2.51003 1.45639 C 2 ASN
17 C17 2.71125 2.55891 1.34276 C 2 ASN
18 C18 1.56717 0.703866 3.88766 C 2 ASN
19 H19 0.908973 1.08695 1.06463 H 3 ASP
20 H20 2.01969 1.16645 1.0087 H 4 ASP
21 H21 2.49949 1.30296 2.51364 H 5 GLY
22 C22 1.46654 4.9923 1.14797 C 6 THY
23 C23 1.49963 4.33892 2.49779 C 6 THY
24 C24 1.53272 3.68555 3.84761 C 6 THY
25 O25 -0.493479 3.3035 -1.10267 O 7 ALA
26 O26 -0.491601 3.30576 -0.10267 O 7 ALA
27 O27 3.50928 3.29985 -1.10811 O 8 ALA
28 O28 3.50481 3.31874 -0.108295 O 8 ALA
29 O29 -0.492866 4.05868 -0.184397 O 9 ALA
30 O30 0.506737 4.05471 -0.212307 O 9 ALA
31 O31 1.50634 4.05074 -0.240217 O 9 ALA
32 O32 2.50594 4.04676 -0.268127 O 9 ALA
33 O33 3.50555 4.04279 -0.296038 O 9 ALA
34 O34 -0.492598 4.55495 -0.245438 O 9 ALA
35 O35 0.507005 4.55097 -0.273348 O 9 ALA
36 O36 1.50661 4.547 -0.301258 O 9 ALA
37 O37 2.50621 4.54302 -0.329168 O 9 ALA
38 O38 3.50581 4.53905 -0.357078 O 9 ALA
39 O39 -0.478639 4.36782 0.281147 O 9 ALA
40 O40 0.520964 4.36385 0.253237 O 9 ALA
41 O41 1.52057 4.35988 0.225327 O 9 ALA
42 O42 2.52017 4.3559 0.197416 O 9 ALA
43 O43 3.51977 4.35193 0.169506 O 9 ALA
44 O44 1.49764 3.27484 2.49468 O 10 GLY
45 H45 -1.75 0 0 H 11 GLY
46 H46 4.75 0 0 H 12 GLY
47 H47 -0.5 2.3 -1.1 H 13 GLY
48 H48 3.5 2.3 -1.1 H 14 GLY
49 H49 2.5 4.3 2.5 H 15 GLY
50 C50 3.75051 -3.19 -1.32442 C 16 ASP
51 C51 3.75886 -2.50131 0.00811658 C 16 ASP
52 C52 3.7672 -1.81263 1.34065 C 16 ASP
53 C53 6.75046 -3.19488 -1.34068 C 16 ASP
54 C54 6.75881 -2.5062 -0.00814911 C 16 ASP
55 C55 6.76716 -1.81751 1.32438 C 16 ASP
56 H56 2.75 -2.5 0 H 17 GLY
57 H57 7.75 -2.5 0 H 18 GLY
58 O58 4.50095 -13.2465 1.54228 O 19 ASP
59 O59 5.73292 -13.1372 2.39099 O 19 ASP
60 C60 3.75651 -12.6514 -1.35511 C 20 ASN
61 C61 3.75077 -11.9839 -0.0118074 C 20 ASN
62 C62 3.74503 -11.3165 1.33149 C 20 ASN
63 C63 3.77001 -14.2001 -1.25522 C 21 ASP
64 C64 3.74784 -15.0007 0.0130428 C 21 ASP
65 C65 3.72568 -15.8013 1.28131 C 21 ASP
66 O66 5.78654 -12.1309 2.3356 O 22 ARG
67 O67 6.60977 -12.2208 1.77505 O 22 ARG
68 O68 7.433 -12.3106 1.2145 O 22 ARG
69 O69 8.25623 -12.4005 0.653948 O 22 ARG
70 O70 9.07947 -12.4903 0.0933982 O 22 ARG
71 C71 10.0509 -13.4923 -0.00894753 C 23 ASN
72 C72 9.05448 -13.4924 0.0759 C 23 ASN
73 C73 4.69147 -13.313 -0.598737 C 24 ARG
74 C74 3.56519 -13.4233 0.385803 C 24 ARG
75 C75 2.4389 -13.5336 1.37034 C 24 ARG
76 O76 3.24497 -13.5043 0.0104225 O 24 ARG
77 C77 6.75515 -13.5015 -1.16217 C 25 GLY
78 C78 6.74811 -12.5015 -1.16042 C 25 GLY
79 H79 10.05 -14.5 0 H 26 GLY
80 O80 8.25895 -6.42146 0.173914 O 27 ASP
81 O81 9.75636 -6.39438 0.090228 O 27 ASP
82 C82 6.77211 -5.67637 -1.33271 C 28 ASN
83 C83 6.76087 -4.99189 0.00196351 C 28 ASN
84 C84 6.74963 -4.30741 1.33664 C 28 ASN
85 C85 6.73645 -8.74583 -1.29946 C 29 ASP
86 C86 6.74804 -7.99454 -0.00122128 C 29 ASP
87 C87 6.75963 -7.24325 1.29702 C 29 ASP
88 O88 9.94762 -5.41312 0.162812 O 30 ARG
89 O89 10.9468 -5.43901 0.131246 O 30 ARG
90 O90 11.9459 -5.4649 0.0996807 O 30 ARG
91 O91 12.9451 -5.49078 0.068115 O 30 ARG
92 O92 13.9443 -5.51667 0.0365493 O 30 ARG
93 C93 13.055 -6.49955 0.0140984 C 31 ASN
94 C94 14.055 -6.4995 0.0218017 C 31 ASN
95 C95 6.82596 -7.1372 -1.32067 C 32 ARG
96 C96 6.75772 -6.47805 0.0250205 C 32 ARG
97 C97 6.68948 -5.81891 1.37071 C 32 ARG
98 O98 6.25824 -6.48825 0.00468653 O 32 ARG
99 C99 9.7429 -6.49949 -1.158 C 33 GLY
100 C100 9.74437 -5.49969 -1.13767 C 33 GLY
101 H101 13.05 -7.5 0 H 34 GLY
102 C102 -3.76686 -3.03499 -1.4022 C 35 ASP
103 C103 -3.76125 -2.50209 -6.61816e-005 C 35 ASP
104 C104 -3.75564 -1.9692 1.40207 C 35 ASP
105 C105 -0.766885 -3.03574 -1.41392 C 35 ASP
106 C106 -0.761275 -2.50284 -0.0117824 C 35 ASP
107 C107 -0.755666 -1.96995 1.39036 C 35 ASP
108 H108 -4.75 -2.5 0 H 36 GLY
109 H109 0.25 -2.5 0 H 37 GLY
110 O110 -2.69563 -13.1118 2.44018 O 38 ASP
111 O111 -1.53635 -13.1677 1.48995 O 38 ASP
112 C112 -0.795123 -12.5405 -1.42252 C 39 ASN
113 C113 -0.759599 -12.0033 -0.0224887 C 39 ASN
114 C114 -0.724075 -11.466 1.37755 C 39 ASN
115 C115 -0.734868 -14.2466 -1.28611 C 40 ASP
116 C116 -0.760001 -14.9996 0.0109196 C 40 ASP
117 C117 -0.785134 -15.7527 1.30795 C 40 ASP
118 O118 -6.15292 -12.5013 0.0952866 O 41 ARG
119 O119 -5.33475 -12.405 0.662141 O 41 ARG
120 O120 -4.51658 -12.3086 1.229 O 41 ARG
121 O121 -3.69842 -12.2123 1.79585 O 41 ARG
122 O122 -2.88025 -12.1159 2.3627 O 41 ARG
123 C123 -6.05722 -13.4984 0.103389 C 42 ASN
124 C124 -7.05142 -13.4976 -0.00417426 C 42 ASN
125 C125 -1.72048 -13.4003 -0.586404 C 43 ARG
126 C126 -0.58316 -13.5077 0.385691 C 43 ARG
127 C127 0.554165 -13.615 1.35779 C 43 ARG
128 O128 -0.258037 -13.5026 0.00586261 O 43 ARG
129 C129 -3.74399 -13.5028 -1.1486 C 44 GLY
130 C130 -3.75079 -12.5028 -1.13935 C 44 GLY
131 H131 -7.05 -14.5 0 H 45 GLY
132 O132 -6.74941 -6.69852 0.184311 O 46 ASP
133 O133 -5.2574 -6.65059 0.0372572 O 46 ASP
134 C134 -3.74491 -5.55116 -1.38489 C 47 ASN
135 C135 -3.76228 -5.00222 0.0109537 C 47 ASN
136 C136 -3.77965 -4.45329 1.40679 C 47 ASN
137 C137 -3.7266 -8.7124 -1.32215 C 48 ASP
138 C138 -3.74119 -8.00501 0.000489146 C 48 ASP
139 C139 -3.75578 -7.29761 1.32313 C 48 ASP
140 O140 -10.8364 -5.52935 -0.111859 O 49 ARG
141 O141 -9.84014 -5.57423 -0.0376236 O 49 ARG
142 O142 -8.84391 -5.61912 0.0366116 O 49 ARG
143 O143 -7.84768 -5.66401 0.110847 O 49 ARG
144 O144 -6.85145 -5.70889 0.185082 O 49 ARG
145 C145 -11.0392 -6.48701 0.019539 C 50 ASN
146 C146 -10.0397 -6.49421 -0.00912684 C 50 ASN
147 C147 -3.78365 -7.15168 -1.32564 C 51 ARG
148 C148 -3.75766 -6.49956 0.0249382 C 51 ARG
149 C149 -3.73167 -5.84743 1.37551 C 51 ARG
150 O150 -3.25844 -6.4795 0.00564811 O 51 ARG
151 C151 -6.75847 -6.49805 -1.156 C 52 GLY
152 C152 -6.74119 -5.49824 -1.1474 C 52 GLY
153 H153 -10.05 -7.5 0 H 53 GLY
154 C154 2.51319 11.988 5.49176 C 54 ALA
155 C155 2.52312 12.272 6.18582 C 54 ALA
156 C156 2.53306 12.5561 6.87987 C 54 ALA
157 C157 1.51327 11.9933 5.50388 C 54 ALA
158 C158 1.53315 12.5614 6.89199 C 54 ALA
159 C159 5.00908 11.9975 5.4964 C 55 ARG
160 C160 5.00278 12.3065 6.17978 C 55 ARG
161 C161 4.99647 12.6154 6.86316 C 55 ARG
162 C162 6.00904 11.9974 5.50567 C 55 ARG
163 C163 5.99643 12.6153 6.87242 C 55 ARG
164 C164 3.75644 13.3104 8.00838 C 56 ASN
165 C165 3.77869 13.5197 7.28852 C 56 ASN
166 C166 3.80094 13.729 6.56866 C 56 ASN
167 C167 3.17631 14.1375 6.66812 C 56 ASN
168 C168 4.47318 14.0485 6.68233 C 56 ASN
169 C169 2.56102 14.5357 6.76488 C 56 ASN
170 C170 5.13482 14.3591 6.79309 C 56 ASN
171 C171 3.71194 12.8918 9.44811 C 56 ASN
172 H172 3.17098 13.0968 6.5341 H 57 ASP
173 H173 4.24323 12.9692 6.48133 H 58 ASP
174 H174 4.76083 13.3005 7.99955 H 59 GLY
175 C175 3.7243 16.7343 6.55729 C 60 THY
176 C176 3.74093 16.3185 7.9984 C 60 THY
177 C177 3.75756 15.9026 9.43951 C 60 THY
178 O178 1.75713 15.2975 4.40257 O 61 ALA
179 O179 2.75654 15.2952 4.36823 O 61 ALA
180 O180 5.73222 15.2837 4.41426 O 62 ALA
181 O181 6.73197 15.3002 4.42933 O 62 ALA
182 O182 2.72928 16.0506 4.32859 O 63 ALA
183 O183 3.72926 16.0463 4.33419 O 63 ALA
184 O184 4.72924 16.0419 4.33979 O 63 ALA
185 O185 5.72921 16.0376 4.34539 O 63 ALA
186 O186 6.72919 16.0333 4.35099 O 63 ALA
187 O187 2.73156 16.5501 4.30731 O 63 ALA
188 O188 3.73154 16.5458 4.31291 O 63 ALA
189 O189 4.73151 16.5415 4.31851 O 63 ALA
190 O190 5.73149 16.5372 4.32412 O 63 ALA
191 O191 6.73146 16.5328 4.32972 O 63 ALA
192 O192 2.72772 16.3216 4.81749 O 63 ALA
193 O193 3.72769 16.3173 4.82309 O 63 ALA
194 O194 4.72767 16.313 4.82869 O 63 ALA
195 O195 5.72764 16.3087 4.83429 O 63 ALA
196 O196 6.72762 16.3043 4.83989 O 63 ALA
197 O197 3.75506 15.2758 7.97608 O 64 GLY
198 H198 0.5 12 5.5 H 65 GLY
199 H199 7 12 5.5 H 66 GLY
200 H200 1.75 14.3 4.4 H 67 GLY
201 H201 5.75 14.3 4.4 H 68 GLY
202 H202 4.75 16.3 8 H 69 GLY
203 O203 7.43089 8.3562 5.8903 O 70 ASP
204 O204 8.82898 8.24326 6.42187 O 70 ASP
205 C205 5.97636 8.89127 4.13167 C 71 ASN
206 C206 5.99653 9.50046 5.50224 C 71 ASN
207 C207 6.0167 10.1096 6.87282 C 71 ASN
208 C208 5.98062 5.69506 4.22411 C 72 ASP
209 C209 6.00198 6.49663 5.4918 C 72 ASP
210 C210 6.02335 7.29821 6.75948 C 72 ASP
211 O211 8.914 9.24591 6.34977 O 73 ARG
212 O212 9.79748 9.18443 5.88534 O 73 ARG
213 O213 10.681 9.12295 5.42091 O 73 ARG
214 O214 11.5644 9.06148 4.95648 O 73 ARG
215 O215 12.4479 9 4.49205 O 73 ARG
216 C216 12.2963 7.99638 5.51849 C 74 ASN
217 C217 12.393 8.01318 4.52332 C 74 ASN
218 C218 6.39202 7.43142 4.30574 C 75 ARG
219 C219 5.99537 8.06112 5.6081 C 75 ARG
220 C220 5.59872 8.69081 6.91047 C 75 ARG
221 O221 5.51343 7.98866 5.49636 O 75 ARG
222 C222 8.99707 7.99741 4.35628 C 76 GLY
223 C223 8.99241 8.99734 4.34585 C 76 GLY
224 H224 12.3 7 5.5 H 77 GLY
225 O225 -0.790898 8.50765 7.4838 O 78 ASP
226 O226 0.505603 8.49975 6.72947 O 78 ASP
227 C227 1.46249 8.92928 4.10217 C 79 ASN
228 C228 1.49879 9.48745 5.49398 C 79 ASN
229 C229 1.53509 10.0456 6.88579 C 79 ASN
230 C230 1.51426 5.86913 4.15376 C 80 ASP
231 C231 1.50538 6.4939 5.51742 C 80 ASP
232 C232 1.49651 7.11867 6.88109 C 80 ASP
233 O233 -4.81357 8.98214 6.54689 O 81 ARG
234 O234 -3.84256 9.10709 6.75068 O 81 ARG
235 O235 -2.87155 9.23204 6.95446 O 81 ARG
236 O236 -1.90054 9.35699 7.15825 O 81 ARG
237 O237 -0.929533 9.48194 7.36203 O 81 ARG
238 C238 -4.72864 7.99196 6.49889 C 82 ASN
239 C239 -4.79514 8.01296 5.50133 C 82 ASN
240 C240 0.67558 7.76008 4.68755 C 83 ARG
241 C241 1.6256 8.03082 5.81634 C 83 ARG
242 C242 2.57561 8.30157 6.94513 C 83 ARG
243 O243 2.01144 7.9936 5.50053 O 83 ARG
244 C244 -1.49918 7.99455 4.3575 C 84 GLY
245 C245 -1.4903 8.9945 4.35217 C 84 GLY
246 H246 -4.8 7 5.5 H 85 GLY
247 C247 4.75419 23.9855 10.9955 C 86 ALA
248 C248 4.7609 24.3681 11.6406 C 86 ALA
249 C249 4.7676 24.7507 12.2856 C 86 ALA
250 C250 3.75424 23.9935 11.0012 C 86 ALA
251 C251 3.76765 24.7588 12.2912 C 86 ALA
252 C252 7.25203 23.9855 10.9857 C 87 ARG
253 C253 7.23111 24.3663 11.6315 C 87 ARG
254 C254 7.21019 24.7471 12.2773 C 87 ARG
255 C255 8.25163 24.004 11.0072 C 87 ARG
256 C256 8.20978 24.7655 12.2989 C 87 ARG
257 C257 5.99526 25.3143 13.5043 C 88 ASN
258 C258 5.98326 25.6015 12.8116 C 88 ASN
259 C259 5.97127 25.8887 12.1188 C 88 ASN
260 C260 5.3427 26.2676 12.2868 C 88 ASN
261 C261 6.64066 26.2111 12.2409 C 88 ASN
262 C262 4.72358 26.6369 12.4506 C 88 ASN
263 C263 7.29953 26.5246 12.3595 C 88 ASN
264 C264 6.01924 24.74 14.8898 C 88 ASN
265 H265 5.32428 25.3223 11.8501 H 89 ASP
266 H266 6.48659 25.1705 11.939 H 90 ASP
267 H267 6.9909 25.3015 13.4991 H 91 GLY
268 C268 5.98442 28.8958 12.1114 C 92 THY
269 C269 5.99657 28.3178 13.4955 C 92 THY
270 C270 6.00872 27.7397 14.8796 C 92 THY
271 O271 4.0066 27.3018 9.90754 O 93 ALA
272 O272 4.02929 27.3141 8.90787 O 93 ALA
273 O273 8.0077 27.3025 9.88402 O 94 ALA
274 O274 8.08416 27.2788 8.88723 O 94 ALA
275 O275 4.0323 28.0612 8.92998 O 95 ALA
276 O276 5.03211 28.0538 8.91159 O 95 ALA
277 O277 6.03191 28.0463 8.8932 O 95 ALA
278 O278 7.03171 28.0388 8.87482 O 95 ALA
279 O279 8.03152 28.0314 8.85643 O 95 ALA
280 O280 4.03543 28.5602 8.89745 O 95 ALA
281 O281 5.03523 28.5527 8.87907 O 95 ALA
282 O282 6.03504 28.5452 8.86068 O 95 ALA
283 O283 7.03484 28.5378 8.84229 O 95 ALA
284 O284 8.03464 28.5303 8.8239 O 95 ALA
285 O285 4.04328 28.3432 9.41257 O 95 ALA
286 O286 5.04309 28.3357 9.39419 O 95 ALA
287 O287 6.04289 28.3282 9.3758 O 95 ALA
288 O288 7.04269 28.3208 9.35741 O 95 ALA
289 O289 8.0425 28.3133 9.33902 O 95 ALA
290 O290 6.00871 27.268 13.4975 O 96 GLY
291 H291 2.75 24 11 H 97 GLY
292 H292 9.25 24 11 H 98 GLY
293 H293 4 26.3 9.9 H 99 GLY
294 H294 8 26.3 9.9 H 100 GLY
295 H295 7 28.3 13.5 H 101 GLY
296 O296 9.34263 20.1923 12.1942 O 102 ASP
297 O297 10.2646 20.2434 13.3763 O 102 ASP
298 C298 8.25094 20.747 9.70574 C 103 ASN
299 C299 8.25652 21.5093 10.9976 C 103 ASN
300 C300 8.26211 22.2716 12.2894 C 103 ASN
301 C301 8.21512 17.8112 9.65386 C 104 ASP
302 C302 8.25363 18.4909 10.9905 C 104 ASP
303 C303 8.29213 19.1705 12.3272 C 104 ASP
304 O304 10.3204 21.232 13.2597 O 105 ARG
305 O305 11.1373 21.17 12.6863 O 105 ARG
306 O306 11.9543 21.1079 12.113 O 105 ARG
307 O307 12.7712 21.0459 11.5396 O 105 ARG
308 O308 13.5882 20.9839 10.9662 O 105 ARG
309 C309 14.5365 20.0093 10.9823 C 106 ASN
310 C310 13.5371 19.9769 10.9675 C 106 ASN
311 C311 9.01502 19.5043 10.1968 C 107 ARG
312 C312 8.15099 20.1124 11.2616 C 107 ARG
313 C313 7.28695 20.7206 12.3263 C 107 ARG
314 O314 7.74295 19.9948 10.9976 O 107 ARG
315 C315 11.2444 19.9999 9.86791 C 108 GLY
316 C316 11.2549 20.9995 9.84219 C 108 GLY
317 H317 14.55 19 11 H 109 GLY
318 O318 1.84794 20.4024 13.3829 O 110 ASP
319 O319 2.89753 20.4301 12.3117 O 110 ASP
320 C320 3.7783 20.7509 9.71987 C 111 ASN
321 C321 3.77048 21.5044 11.0169 C 111 ASN
322 C322 3.76266 22.2579 12.3139 C 111 ASN
323 C323 3.76746 18.1011 9.55376 C 112 ASP
324 C324 3.74888 18.487 11.0031 C 112 ASP
325 C325 3.73029 18.873 12.4525 C 112 ASP
326 O326 -1.49003 20.9604 10.7906 O 113 ARG
327 O327 -0.692837 21.0652 11.3852 O 113 ARG
328 O328 0.104359 21.17 11.9797 O 113 ARG
329 O329 0.901555 21.2749 12.5743 O 113 ARG
330 O330 1.69875 21.3797 13.1688 O 113 ARG
331 C331 -1.5364 19.981 10.972 C 114 ASN
332 C332 -2.53588 19.9988 10.9991 C 114 ASN
333 C333 2.87232 19.5212 10.4076 C 115 ARG
334 C334 3.93833 19.9406 11.376 C 115 ARG
335 C335 5.00433 20.36 12.3444 C 115 ARG
336 O336 4.26275 19.9877 10.9985 O 115 ARG
337 C337 0.746983 19.9922 9.84375 C 116 GLY
338 C338 0.75438 20.992 9.86003 C 116 GLY
339 H339 -2.55 19 11 H 117 GLY
340 O340 3.72638 32.0878 15.4752 O 118 ASP
341 O341 4.83669 32.0616 14.467 O 118 ASP
342 C342 6.01274 34.7098 12.1859 C 119 ASN
343 C343 6.01035 33.9945 13.5044 C 119 ASN
344 C344 6.00796 33.2791 14.8228 C 119 ASN
345 C345 5.98876 31.5505 12.0989 C 120 ASP
346 C346 5.9962 30.9968 13.4929 C 120 ASP
347 C347 6.00364 30.4431 14.887 C 120 ASP
348 O348 0.632616 33.5122 13.3218 O 121 ARG
349 O349 1.45473 33.3991 13.8798 O 121 ARG
350 O350 2.27684 33.2859 14.4378 O 121 ARG
351 O351 3.09895 33.1728 14.9957 O 121 ARG
352 O352 3.92106 33.0597 15.5537 O 121 ARG
353 C353 0.690584 32.5154 13.4108 C 122 ASN
354 C354 -0.304271 32.4959 13.5102 C 122 ASN
355 C355 5.34321 32.9549 12.5391 C 123 ARG
356 C356 6.08487 32.3865 13.7125 C 123 ARG
357 C357 6.82653 31.8181 14.8859 C 123 ARG
358 O358 6.51925 32.5088 13.4972 O 123 ARG
359 C359 3.01066 32.4929 12.3397 C 124 GLY
360 C360 2.98564 33.4923 12.3651 C 124 GLY
361 H361 -0.3 31.5 13.5 H 125 GLY
362 H362 0.253299 -0.00792892 0.00173777 H 0 ALA
363 H363 2.74452 -0.000586563 -0.0131242 H 1 ARG
364 H364 0.288598 0.519905 1.40536 H 0 ALA
365 H365 0.908973 1.08695 1.06463 H 3 ASP
366 H366 2.73559 0.695145 1.31574 H 1 ARG
367 H367 2.01969 1.16645 1.0087 H 4 ASP
368 H368 1.42335 1.84053 1.11505 H 2 ASN
369 H369 1.49526 1.2722 2.50135 H 2 ASN
370 H370 2.49949 1.30296 2.51364 H 5 GLY
371 H371 1.56717 0.703866 3.88766 H 2 ASN
372 H372 1.53272 3.68555 3.84761 H 6 THY
373 H373 -0.491601 3.30576 -0.10267 H 7 ALA
374 H374 -0.492866 4.05868 -0.184397 H 9 ALA
375 H375 3.50481 3.31874 -0.108295 H 8 ALA
376 H376 3.50555 4.04279 -0.296038 H 9 ALA
377 H377 1.49963 4.33892 2.49779 H 6 THY
378 H378 1.49764 3.27484 2.49468 H 10 GLY
379 H379 -1.75 0 0 H 11 GLY
380 H380 -0.746383 -0.0080431 0.0269207 H 0 ALA
381 H381 4.75 0 0 H 12 GLY
382 H382 3.7444 -0.0107707 -0.00106967 H 1 ARG
383 H383 -0.5 2.3 -1.1 H 13 GLY
384 H384 -0.493479 3.3035 -1.10267 H 7 ALA
385 H385 3.5 2.3 -1.1 H 14 GLY
386 H386 3.50928 3.29985 -1.10811 H 8 ALA
387 H387 2.5 4.3 2.5 H 15 GLY
388 H388 3.75886 -2.50131 0.00811658 H 16 ASP
389 H389 2.75 -2.5 0 H 17 GLY
390 H390 6.75881 -2.5062 -0.00814911 H 16 ASP
391 H391 7.75 -2.5 0 H 18 GLY
392 H392 5.73292 -13.1372 2.39099 H 19 ASP
393 H393 5.78654 -12.1309 2.3356 H 22 ARG
394 H394 9.07947 -12.4903 0.0933982 H 22 ARG
395 H395 9.05448 -13.4924 0.0759 H 23 ASN
396 H396 4.50095 -13.2465 1.54228 H 19 ASP
397 H397 3.56519 -13.4233 0.385803 H 24 ARG
398 H398 10.05 -14.5 0 H 26 GLY
399 H399 10.0509 -13.4923 -0.00894753 H 23 ASN
400 H400 3.25 -12 0 H 26 GLY
401 H401 3.75077 -11.9839 -0.0118074 H 20 ASN
402 H402 3.25 -15 0 H 26 GLY
403 H403 3.74784 -15.0007 0.0130428 H 21 ASP
404 H404 3.24497 -13.5043 0.0104225 H 24 ARG
405 H405 4.25 -15 0 H 26 GLY
406 H406 6.75 -14.5 -1.15 H 26 GLY
407 H407 4.25 -12 0 H 26 GLY
408 H408 6.75 -11.5 -1.15 H 26 GLY
409 H409 6.75515 -13.5015 -1.16217 H 25 GLY
410 H410 6.74811 -12.5015 -1.16042 H 25 GLY
411 H411 9.75636 -6.39438 0.090228 H 27 ASP
412 H412 9.94762 -5.41312 0.162812 H 30 ARG
413 H413 13.9443 -5.51667 0.0365493 H 30 ARG
414 H414 14.055 -6.4995 0.0218017 H 31 ASN
415 H415 8.25895 -6.42146 0.173914 H 27 ASP
416 H416 6.75772 -6.47805 0.0250205 H 32 ARG
417 H417 13.05 -7.5 0 H 34 GLY
418 H418 13.055 -6.49955 0.0140984 H 31 ASN
419 H419 6.25 -5 0 H 34 GLY
420 H420 6.76087 -4.99189 0.00196351 H 28 ASN
421 H421 6.25 -8 0 H 34 GLY
422 H422 6.74804 -7.99454 -0.00122128 H 29 ASP
423 H423 6.25824 -6.48825 0.00468653 H 32 ARG
424 H424 7.25 -8 0 H 34 GLY
425 H425 9.75 -7.5 -1.15 H 34 GLY
426 H426 7.25 -5 0 H 34 GLY
427 H427 9.75 -4.5 -1.15 H 34 GLY
428 H428 9.7429 -6.49949 -1.158 H 33 GLY
429 H429 9.74437 -5.49969 -1.13767 H 33 GLY
430 H430 6.76716 -1.81751 1.32438 H 16 ASP
431 H431 6.74963 -4.30741 1.33664 H 28 ASN
432 H432 3.7672 -1.81263 1.34065 H 16 ASP
433 H433 3.74503 -11.3165 1.33149 H 20 ASN
434 H434 -3.76125 -2.50209 -6.61816e-005 H 35 ASP
435 H435 -4.75 -2.5 0 H 36 GLY
436 H436 -0.761275 -2.50284 -0.0117824 H 35 ASP
437 H437 0.25 -2.5 0 H 37 GLY
438 H438 -2.69563 -13.1118 2.44018 H 38 ASP
439 H439 -2.88025 -12.1159 2.3627 H 41 ARG
440 H440 -6.15292 -12.5013 0.0952866 H 41 ARG
441 H441 -6.05722 -13.4984 0.103389 H 42 ASN
442 H442 -1.53635 -13.1677 1.48995 H 38 ASP
443 H443 -0.58316 -13.5077 0.385691 H 43 ARG
444 H444 -7.05 -14.5 0 H 45 GLY
445 H445 -7.05142 -13.4976 -0.00417426 H 42 ASN
446 H446 -0.25 -12 0 H 45 GLY
447 H447 -0.759599 -12.0033 -0.0224887 H 39 ASN
448 H448 -0.25 -15 0 H 45 GLY
449 H449 -0.760001 -14.9996 0.0109196 H 40 ASP
450 H450 -0.258037 -13.5026 0.00586261 H 43 ARG
451 H451 -1.25 -15 0 H 45 GLY
452 H452 -3.75 -14.5 -1.15 H 45 GLY
453 H453 -1.25 -12 0 H 45 GLY
454 H454 -3.75 -11.5 -1.15 H 45 GLY
455 H455 -3.74399 -13.5028 -1.1486 H 44 GLY
456 H456 -3.75079 -12.5028 -1.13935 H 44 GLY
457 H457 -6.74941 -6.69852 0.184311 H 46 ASP
458 H458 -6.85145 -5.70889 0.185082 H 49 ARG
459 H459 -10.8364 -5.52935 -0.111859 H 49 ARG
460 H460 -11.0392 -6.48701 0.019539 H 50 ASN
461 H461 -5.2574 -6.65059 0.0372572 H 46 ASP
462 H462 -3.75766 -6.49956 0.0249382 H 51 ARG
463 H463 -10.05 -7.5 0 H 53 GLY
464 H464 -10.0397 -6.49421 -0.00912684 H 50 ASN
465 H465 -3.25 -5 0 H 53 GLY
466 H466 -3.76228 -5.00222 0.0109537 H 47 ASN
467 H467 -3.25 -8 0 H 53 GLY
468 H468 -3.74119 -8.00501 0.000489146 H 48 ASP
469 H469 -3.25844 -6.4795 0.00564811 H 51 ARG
470 H470 -4.25 -8 0 H 53 GLY
471 H471 -6.75 -7.5 -1.15 H 53 GLY
472 H472 -4.25 -5 0 H 53 GLY
473 H473 -6.75 -4.5 -1.15 H 53 GLY
474 H474 -6.75847 -6.49805 -1.156 H 52 GLY
475 H475 -6.74119 -5.49824 -1.1474 H 52 GLY
476 H476 -3.75564 -1.9692 1.40207 H 35 ASP
477 H477 -3.77965 -4.45329 1.40679 H 47 ASN
478 H478 -0.755666 -1.96995 1.39036 H 35 ASP
479 H479 -0.724075 -11.466 1.37755 H 39 ASN
480 H480 2.51319 11.988 5.49176 H 54 ALA
481 H481 5.00908 11.9975 5.4964 H 55 ARG
482 H482 2.53306 12.5561 6.87987 H 54 ALA
483 H483 3.17098 13.0968 6.5341 H 57 ASP
484 H484 4.99647 12.6154 6.86316 H 55 ARG
485 H485 4.24323 12.9692 6.48133 H 58 ASP
486 H486 3.80094 13.729 6.56866 H 56 ASN
487 H487 3.75644 13.3104 8.00838 H 56 ASN
488 H488 4.76083 13.3005 7.99955 H 59 GLY
489 H489 3.71194 12.8918 9.44811 H 56 ASN
490 H490 3.75756 15.9026 9.43951 H 60 THY
491 H491 2.75654 15.2952 4.36823 H 61 ALA
492 H492 2.72928 16.0506 4.32859 H 63 ALA
493 H493 6.73197 15.3002 4.42933 H 62 ALA
494 H494 6.72919 16.0333 4.35099 H 63 ALA
495 H495 3.74093 16.3185 7.9984 H 60 THY
496 H496 3.75506 15.2758 7.97608 H 64 GLY
497 H497 0.5 12 5.5 H 65 GLY
498 H498 1.51327 11.9933 5.50388 H 54 ALA
499 H499 7 12 5.5 H 66 GLY
500 H500 6.00904 11.9974 5.50567 H 55 ARG
501 H501 1.75 14.3 4.4 H 67 GLY
502 H502 1.75713 15.2975 4.40257 H 61 ALA
503 H503 5.75 14.3 4.4 H 68 GLY
504 H504 5.73222 15.2837 4.41426 H 62 ALA
505 H505 4.75 16.3 8 H 69 GLY
506 H506 8.82898 8.24326 6.42187 H 70 ASP
507 H507 8.914 9.24591 6.34977 H 73 ARG
508 H508 12.4479 9 4.49205 H 73 ARG
509 H509 12.393 8.01318 4.52332 H 74 ASN
510 H510 7.43089 8.3562 5.8903 H 70 ASP
511 H511 5.99537 8.06112 5.6081 H 75 ARG
512 H512 12.3 7 5.5 H 77 GLY
513 H513 12.2963 7.99638 5.51849 H 74 ASN
514 H514 5.5 9.5 5.5 H 77 GLY
515 H515 5.99653 9.50046 5.50224 H 71 ASN
516 H516 5.5 6.5 5.5 H 77 GLY
517 H517 6.00198 6.49663 5.4918 H 72 ASP
518 H518 5.51343 7.98866 5.49636 H 75 ARG
519 H519 6.5 6.5 5.5 H 77 GLY
520 H520 9 7 4.35 H 77 GLY
521 H521 6.5 9.5 5.5 H 77 GLY
522 H522 9 10 4.35 H 77 GLY
523 H523 8.99707 7.99741 4.35628 H 76 GLY
524 H524 8.99241 8.99734 4.34585 H 76 GLY
525 H525 -0.790898 8.50765 7.4838 H 78 ASP
526 H526 -0.929533 9.48194 7.36203 H 81 ARG
527 H527 -4.81357 8.98214 6.54689 H 81 ARG
528 H528 -4.72864 7.99196 6.49889 H 82 ASN
529 H529 0.505603 8.49975 6.72947 H 78 ASP
530 H530 1.6256 8.03082 5.81634 H 83 ARG
531 H531 -4.8 7 5.5 H 85 GLY
532 H532 -4.79514 8.01296 5.50133 H 82 ASN
533 H533 2 9.5 5.5 H 85 GLY
534 H534 1.49879 9.48745 5.49398 H 79 ASN
535 H535 2 6.5 5.5 H 85 GLY
536 H536 1.50538 6.4939 5.51742 H 80 ASP
537 H537 2.01144 7.9936 5.50053 H 83 ARG
538 H538 1 6.5 5.5 H 85 GLY
539 H539 -1.5 7 4.35 H 85 GLY
540 H540 1 9.5 5.5 H 85 GLY
541 H541 -1.5 10 4.35 H 85 GLY
542 H542 -1.49918 7.99455 4.3575 H 84 GLY
543 H543 -1.4903 8.9945 4.35217 H 84 GLY
544 H544 4.75419 23.9855 10.9955 H 86 ALA
545 H545 7.25203 23.9855 10.9857 H 87 ARG
546 H546 4.7676 24.7507 12.2856 H 86 ALA
547 H547 5.32428 25.3223 11.8501 H 89 ASP
548 H548 7.21019 24.7471 12.2773 H 87 ARG
549 H549 6.48659 25.1705 11.939 H 90 ASP
550 H550 5.97127 25.8887 12.1188 H 88 ASN
551 H551 5.99526 25.3143 13.5043 H 88 ASN
552 H552 6.9909 25.3015 13.4991 H 91 GLY
553 H553 6.01924 24.74 14.8898 H 88 ASN
554 H554 6.00872 27.7397 14.8796 H 92 THY
555 H555 4.02929 27.3141 8.90787 H 93 ALA
556 H556 4.0323 28.0612 8.92998 H 95 ALA
557 H557 8.08416 27.2788 8.88723 H 94 ALA
558 H558 8.03152 28.0314 8.85643 H 95 ALA
559 H559 5.99657 28.3178 13.4955 H 92 THY
560 H560 6.00871 27.268 13.4975 H 96 GLY
561 H561 2.75 24 11 H 97 GLY
562 H562 3.75424 23.9935 11.0012 H 86 ALA
563 H563 9.25 24 11 H 98 GLY
564 H564 8.25163 24.004 11.0072 H 87 ARG
565 H565 4 26.3 9.9 H 99 GLY
566 H566 4.0066 27.3018 9.90754 H 93 ALA
567 H567 8 26.3 9.9 H 100 GLY
568 H568 8.0077 27.3025 9.88402 H 94 ALA
569 H569 7 28.3 13.5 H 101 GLY
570 H570 10.2646 20.2434 13.3763 H 102 ASP
571 H571 10.3204 21.232 13.2597 H 105 ARG
572 H572 13.5882 20.9839 10.9662 H 105 ARG
573 H573 13.5371 19.9769 10.9675 H 106 ASN
574 H574 9.34263 20.1923 12.1942 H 102 ASP
575 H575 8.15099 20.1124 11.2616 H 107 ARG
576 H576 14.55 19 11 H 109 GLY
577 H577 14.5365 20.0093 10.9823 H 106 ASN
578 H578 7.75 21.5 11 H 109 GLY
579 H579 8.25652 21.5093 10.9976 H 103 ASN
580 H580 7.75 18.5 11 H 109 GLY
581 H581 8.25363 18.4909 10.9905 H 104 ASP
582 H582 7.74295 19.9948 10.9976 H 107 ARG
583 H583 8.75 18.5 11 H 109 GLY
584 H584 11.25 19 9.85 H 109 GLY
585 H585 8.75 21.5 11 H 109 GLY
586 H586 11.25 22 9.85 H 109 GLY
587 H587 11.2444 19.9999 9.86791 H 108 GLY
588 H588 11.2549 20.9995 9.84219 H 108 GLY
589 H589 1.84794 20.4024 13.3829 H 110 ASP
590 H590 1.69875 21.3797 13.1688 H 113 ARG
591 H591 -1.49003 20.9604 10.7906 H 113 ARG
592 H592 -1.5364 19.981 10.972 H 114 ASN
593 H593 2.89753 20.4301 12.3117 H 110 ASP
594 H594 3.93833 19.9406 11.376 H 115 ARG
595 H595 -2.55 19 11 H 117 GLY
596 H596 -2.53588 19.9988 10.9991 H 114 ASN
597 H597 4.25 21.5 11 H 117 GLY
598 H598 3.77048 21.5044 11.0169 H 111 ASN
599 H599 4.25 18.5 11 H 117 GLY
600 H600 3.74888 18.487 11.0031 H 112 ASP
601 H601 4.26275 19.9877 10.9985 H 115 ARG
602 H602 3.25 18.5 11 H 117 GLY
603 H603 0.75 19 9.85 H 117 GLY
604 H604 3.25 21.5 11 H 117 GLY
605 H605 0.75 22 9.85 H 117 GLY
606 H606 0.746983 19.9922 9.84375 H 116 GLY
607 H607 0.75438 20.992 9.86003 H 116 GLY
608 H608 3.72638 32.0878 15.4752 H 118 ASP
609 H609 3.92106 33.0597 15.5537 H 121 ARG
610 H610 0.632616 33.5122 13.3218 H 121 ARG
611 H611 0.690584 32.5154 13.4108 H 122 ASN
612 H612 4.83669 32.0616 14.467 H 118 ASP
613 H613 6.08487 32.3865 13.7125 H 123 ARG
614 H614 -0.3 31.5 13.5 H 125 GLY
615 H615 -0.304271 32.4959 13.5102 H 122 ASN
616 H616 6.5 34 13.5 H 125 GLY
617 H617 6.01035 33.9945 13.5044 H 119 ASN
618 H618 6.5 31 13.5 H 125 GLY
619 H619 5.9962 30.9968 13.4929 H 120 ASP
620 H620 6.51925 32.5088 13.4972 H 123 ARG
621 H621 5.5 31 13.5 H 125 GLY
622 H622 3 31.5 12.35 H 125 GLY
623 H623 5.5 34 13.5 H 125 GLY
624 H624 3 34.5 12.35 H 125 GLY
625 H625 3.01066 32.4929 12.3397 H 124 GLY
626 H626 2.98564 33.4923 12.3651 H 124 GLY
627 H627 -0.711085 0.519791 1.43054 H 0 ALA
628 H628 3.73546 0.684961 1.32779 H 1 ARG
629 H629 1.51426 5.86913 4.15376 H 80 ASP
630 H630 1.53315 12.5614 6.89199 H 54 ALA
631 H631 1.53509 10.0456 6.88579 H 79 ASN
632 H632 5.99643 12.6153 6.87242 H 55 ARG
633 H633 6.0167 10.1096 6.87282 H 71 ASN
634 H634 3.76746 18.1011 9.55376 H 112 ASP
635 H635 3.76765 24.7588 12.2912 H 86 ALA
636 H636 3.76266 22.2579 12.3139 H 111 ASN
637 H637 8.20978 24.7655 12.2989 H 87 ARG
638 H638 8.26211 22.2716 12.2894 H 103 ASN
639 H639 6.00364 30.4431 14.887 H 120 ASP
@<TRIPOS>BOND
1 1 2 2
2 1 4 2
3 2 3 2
4 3 5 2
5 6 7 2
6 6 9 2
7 7 8 2
8 8 10 2
9 11 12 2
10 11 18 2
11 12 13 2
12 13 14 2
13 13 15 2
14 14 16 2
15 15 17 2
16 22 23 2
17 23 24 2
18 25 26 2
19 27 28 2
20 29 34 2
21 29 39 2
22 29 30 2
23 30 35 2
24 30 40 2
25 30 31 2
26 31 36 2
27 31 41 2
28 31 32 2
29 32 37 2
30 32 42 2
31 32 33 2
32 33 38 2
33 33 43 2
34 50 51 2
35 50 53 2
36 51 52 2
37 53 54 2
38 54 55 2
39 58 59 2
40 60 61 2
41 61 62 2
42 63 64 2
43 64 65 2
44 66 67 2
45 67 68 2
46 68 69 2
47 69 70 2
48 71 72 2
49 73 74 2
50 74 76 2
51 74 75 2
52 77 78 2
53 80 81 2
54 82 83 2
55 83 84 2
56 85 86 2
57 86 87 2
58 88 89 2
59 89 90 2
60 90 91 2
61 91 92 2
62 93 94 2
63 95 96 2
64 96 98 2
65 96 97 2
66 99 100 2
67 102 103 2
68 102 105 2
69 103 104 2
70 105 106 2
71 106 107 2
72 110 111 2
73 112 113 2
74 113 114 2
75 115 116 2
76 116 117 2
77 118 119 2
78 119 120 2
79 120 121 2
80 121 122 2
81 123 124 2
82 125 126 2
83 126 128 2
84 126 127 2
85 129 130 2
86 132 133 2
87 134 135 2
88 135 136 2
89 137 138 2
90 138 139 2
91 140 141 2
92 141 142 2
93 142 143 2
94 143 144 2
95 145 146 2
96 147 148 2
97 148 150 2
98 148 149 2
99 151 152 2
100 154 155 2
101 154 157 2
102 155 156 2
103 156 158 2
104 159 160 2
105 159 162 2
106 160 161 2
107 161 163 2
108 164 165 2
109 164 171 2
110 165 166 2
111 166 167 2
112 166 168 2
113 167 169 2
114 168 170 2
115 175 176 2
116 176 177 2
117 178 179 2
118 180 181 2
119 182 187 2
120 182 192 2
121 182 183 2
122 183 188 2
123 183 193 2
124 183 184 2
125 184 189 2
126 184 194 2
127 184 185 2
128 185 190 2
129 185 195 2
130 185 186 2
131 186 191 2
132 186 196 2
133 203 204 2
134 205 206 2
135 206 207 2
136 208 209 2
137 209 210 2
138 211 212 2
139 212 213 2
140 213 214 2
141 214 215 2
142 216 217 2
143 218 219 2
144 219 221 2
145 219 220 2
146 222 223 2
147 225 226 2
148 227 228 2
149 228 229 2
150 230 231 2
151 231 232 2
152 233 234 2
153 234 235 2
154 235 236 2
155 236 237 2
156 238 239 2
157 240 241 2
158 241 243 2
159 241 242 2
160 244 245 2
161 247 248 2
162 247 250 2
163 248 249 2
164 249 251 2
165 252 253 2
166 252 255 2
167 253 254 2
168 254 256 2
169 257 258 2
170 257 264 2
171 258 259 2
172 259 260 2
173 259 261 2
174 260 262 2
175 261 263 2
176 268 269 2
177 269 270 2
178 271 272 2
179 273 274 2
180 275 280 2
181 275 285 2
182 275 276 2
183 276 281 2
184 276 286 2
185 276 277 2
186 277 282 2
187 277 287 2
188 277 278 2
189 278 283 2
190 278 288 2
191 278 279 2
192 279 284 2
193 279 289 2
194 296 297 2
195 298 299 2
196 299 300 2
197 301 302 2
198 302 303 2
199 304 305 2
200 305 306 2
201 306 307 2
202 307 308 2
203 309 310 2
204 311 312 2
205 312 314 2
206 312 313 2
207 315 316 2
208 318 319 2
209 320 321 2
210 321 322 2
211 323 324 2
212 324 325 2
213 326 327 2
214 327 328 2
215 328 329 2
216 329 330 2
217 331 332 2
218 333 334 2
219 334 336 2
220 334 335 2
221 337 338 2
222 340 341 2
223 342 343 2
224 343 344 2
225 345 346 2
226 346 347 2
227 348 349 2
228 349 350 2
229 350 351 2
230 351 352 2
231 353 354 2
232 355 356 2
233 356 358 2
234 356 357 2
235 359 360 2
