#
#
#

#
#

@<TRIPOS>MOLECULE
Panda
809 80
SMALL
NO CHARGES


@<TRIPOS>ATOM
1 C1 0.256344 -0.00739799 -0.0104086 C 0 GLU
2 C2 0.270328 0.325314 0.661608 C 0 GLU
3 C3 0.284311 0.658028 1.33363 C 0 GLU
4 C4 -0.743423 0.0105662 0.00149989 C 0 GLU
5 C5 -0.715457 0.675993 1.34554 C 0 GLU
6 U6 -0.77139 -0.654859 -1.34254 U 0 GLU
7 C7 2.74847 0.0133016 -0.0127676 C 1 GLU
8 C8 2.73989 0.334802 0.664775 C 1 GLU
9 C9 2.73131 0.656302 1.34232 C 1 GLU
10 C10 3.74831 0.00589296 0.00340584 C 1 GLU
11 C11 3.73115 0.648894 1.35849 C 1 GLU
12 C12 1.49906 1.3107 2.48407 C 2 GLU
13 C13 1.51381 1.56143 1.77737 C 2 GLU
14 C14 1.52856 1.81216 1.07068 C 2 GLU
15 C15 0.891179 2.19391 1.19282 C 2 GLU
16 C16 2.19026 2.14614 1.20298 C 2 GLU
17 C17 0.263473 2.56587 1.31168 C 2 GLU
18 C18 2.84165 2.47107 1.33186 C 2 GLU
19 C19 1.46955 0.809244 3.89746 C 2 GLU
20 H20 0.938021 1.14939 0.90448 H 3 GLU
21 H21 2.04599 1.07932 0.931266 H 4 GLU
22 H22 2.50222 1.30891 2.47547 H 5 GLU
23 C23 1.52139 4.83823 1.10114 C 6 GLU
24 C24 1.49354 4.32533 2.51046 C 6 GLU
25 C25 1.46568 3.81243 3.91977 C 6 GLU
26 U26 0.494074 4.30627 2.48377 U 6 GLU
27 O27 -0.496814 3.29215 -0.897007 O 7 GLU
28 O28 0.229074 3.28985 -0.209198 O 7 GLU
29 U29 -0.512232 2.29235 -0.884082 U 7 GLU
30 U30 0.190825 3.27217 -1.62278 U 7 GLU
31 O31 3.50054 3.29272 -0.908758 O 8 GLU
32 O32 4.29307 3.28465 -0.298973 O 8 GLU
33 U33 3.49621 2.29276 -0.916358 U 8 GLU
34 U34 4.11037 3.2961 -1.70129 U 8 GLU
35 O35 0.286437 4.00648 -0.352716 O 9 GLU
36 O36 1.28641 4.01053 -0.358125 O 9 GLU
37 O37 2.28639 4.01457 -0.363532 O 9 GLU
38 O38 3.28637 4.01861 -0.368939 O 9 GLU
39 O39 4.28635 4.02265 -0.374347 O 9 GLU
40 O40 0.283882 4.4948 -0.460168 O 9 GLU
41 O41 1.28386 4.49884 -0.465576 O 9 GLU
42 O42 2.28383 4.50288 -0.470983 O 9 GLU
43 O43 3.28382 4.50692 -0.47639 O 9 GLU
44 O44 4.28379 4.51096 -0.481798 O 9 GLU
45 O45 0.287363 4.3581 0.0818683 O 9 GLU
46 O46 1.28734 4.36214 0.0764603 O 9 GLU
47 O47 2.28732 4.36619 0.0710532 O 9 GLU
48 O48 3.2873 4.37023 0.0656461 O 9 GLU
49 O49 4.28728 4.37427 0.060238 O 9 GLU
50 U50 0.285159 4.25064 -0.406442 U 9 GLU
51 O51 1.49816 3.27137 2.50352 O 10 GLU
52 H52 -1.75 0 0 H 11 GLU
53 H53 4.75 0 0 H 12 GLU
54 H54 -0.5 2.3 -0.9 H 13 GLU
55 H55 3.5 2.3 -0.9 H 14 GLU
56 H56 2.5 4.3 2.5 H 15 GLU
57 C57 3.7522 -3.17739 -1.34407 C 16 GLU
58 C58 3.74523 -2.52096 0.00465238 C 16 GLU
59 C59 3.73827 -1.86454 1.35338 C 16 GLU
60 C60 6.75214 -3.16121 -1.33646 C 16 GLU
61 C61 6.74518 -2.50479 0.0122659 C 16 GLU
62 C62 6.73822 -1.84836 1.36099 C 16 GLU
63 H63 2.75 -2.5 0 H 17 GLU
64 H64 7.75 -2.5 0 H 18 GLU
65 O65 4.34488 -13.4696 1.64607 O 19 GLU
66 O66 5.55422 -13.4967 2.53306 O 19 GLU
67 U67 3.13554 -13.4424 0.759073 U 19 GLU
68 C68 3.76699 -12.6169 -1.34987 C 20 GLU
69 C69 3.75056 -11.9887 0.0121242 C 20 GLU
70 C70 3.73413 -11.3604 1.37412 C 20 GLU
71 U71 2.75063 -11.9897 0.000530038 U 20 GLU
72 C72 3.73022 -14.1369 -1.22274 C 21 GLU
73 C73 3.75217 -15.0023 0.00220699 C 21 GLU
74 C74 3.77411 -15.8678 1.22716 C 21 GLU
75 U75 2.75227 -15.0111 0.0139163 U 21 GLU
76 U76 3.7668 -15.5793 0.81884 U 21 GLU
77 O77 5.70038 -12.5307 2.28005 O 22 GLU
78 O78 6.49899 -12.5333 1.67821 O 22 GLU
79 O79 7.29761 -12.536 1.07637 O 22 GLU
80 O80 8.09622 -12.5386 0.474535 O 22 GLU
81 O81 8.89484 -12.5412 -0.127302 O 22 GLU
82 C82 10.036 -13.5055 -0.00384778 C 23 GLU
83 C83 9.03992 -13.5257 -0.0899884 C 23 GLU
84 U84 10.057 -14.5053 -0.0119002 U 23 GLU
85 U85 11.0321 -13.4853 0.0822926 U 23 GLU
86 C86 4.75768 -13.4107 -0.447872 C 24 GLU
87 C87 3.51652 -13.4032 0.394428 C 24 GLU
88 C88 2.27536 -13.3957 1.23673 C 24 GLU
89 O89 3.24103 -13.5034 -0.0106167 O 24 GLU
90 C90 6.75012 -13.4951 -1.14309 C 25 GLU
91 C91 6.75132 -12.4951 -1.14958 C 25 GLU
92 H92 10.05 -14.5 1.0679e-07 H 26 GLU
93 U93 3.75001 -13.5 -9.19241e-07 U 26 GLU
94 U94 3.25001 -12 -9.55266e-07 U 26 GLU
95 U95 3.25 -15 -1.41564e-06 U 26 GLU
96 U96 2.75001 -9 -1.35258e-06 U 26 GLU
97 U97 4.25 -15 -1.25336e-06 U 26 GLU
98 U98 4.25001 -12 -7.29193e-07 U 26 GLU
99 U99 6.75 -14.5 -1.14999 U 26 GLU
100 U100 6.75 -11.5 -1.15 U 26 GLU
101 O101 8.24587 -6.63009 0.317445 O 27 GLU
102 O102 9.74583 -6.61931 0.317382 O 27 GLU
103 U103 6.74591 -6.64087 0.317508 U 27 GLU
104 C104 6.75236 -5.64212 -1.35201 C 28 GLU
105 C105 6.74359 -4.99487 0.00113345 C 28 GLU
106 C106 6.73482 -4.34762 1.35427 C 28 GLU
107 U107 5.74361 -4.99948 -0.00314883 U 28 GLU
108 C108 6.73865 -8.72049 -1.31646 C 29 GLU
109 C109 6.74259 -8.01286 0.0061275 C 29 GLU
110 C110 6.74652 -7.30522 1.32871 C 29 GLU
111 U111 5.74276 -7.9956 -0.000129069 U 29 GLU
112 U112 6.74521 -7.5411 0.887853 U 29 GLU
113 O113 9.90406 -5.63683 0.36819 O 30 GLU
114 O114 10.8965 -5.60628 0.249039 O 30 GLU
115 O115 11.8889 -5.57573 0.129889 O 30 GLU
116 O116 12.8813 -5.54518 0.0107386 O 30 GLU
117 O117 13.8737 -5.51463 -0.108412 O 30 GLU
118 C118 13.0495 -6.50254 -0.0090714 C 31 GLU
119 C119 14.0486 -6.49489 -0.0502669 C 31 GLU
120 U120 13.0581 -7.50224 0.013548 U 31 GLU
121 C121 6.90073 -7.14627 -1.30103 C 32 GLU
122 C122 6.75432 -6.51308 0.0508672 C 32 GLU
123 C123 6.60791 -5.87989 1.40277 C 32 GLU
124 O124 6.25839 -6.49648 -0.0106156 O 32 GLU
125 C125 9.74202 -6.5036 -1.14964 C 33 GLU
126 C126 9.75282 -5.50366 -1.1499 C 33 GLU
127 H127 13.05 -7.5 1.0679e-07 H 34 GLU
128 U128 6.75001 -6.5 -9.19241e-07 U 34 GLU
129 U129 6.25001 -5 -9.55266e-07 U 34 GLU
130 U130 6.25 -7.99999 -1.41564e-06 U 34 GLU
131 U131 5.75001 -2 -1.35258e-06 U 34 GLU
132 U132 7.25 -7.99999 -1.25336e-06 U 34 GLU
133 U133 7.25001 -5 -7.29193e-07 U 34 GLU
134 U134 9.75 -7.5 -1.14999 U 34 GLU
135 U135 9.75 -4.5 -1.15 U 34 GLU
136 C136 -3.74424 -3.18648 -1.32944 C 35 GLU
137 C137 -3.74307 -2.50181 0.0051863 C 35 GLU
138 C138 -3.7419 -1.81713 1.33981 C 35 GLU
139 C139 -0.744243 -3.19061 -1.32995 C 35 GLU
140 C140 -0.743072 -2.50593 0.00467297 C 35 GLU
141 C141 -0.741901 -1.82126 1.3393 C 35 GLU
142 H142 -4.75 -2.5 0 H 36 GLU
143 H143 0.25 -2.5 0 H 37 GLU
144 O144 -2.65093 -13.2014 2.34959 O 38 GLU
145 O145 -1.42359 -13.1353 1.48979 O 38 GLU
146 U146 -0.196239 -13.0693 0.629987 U 38 GLU
147 C147 -0.720136 -12.6227 -1.34653 C 39 GLU
148 C148 -0.741881 -11.9766 0.00702556 C 39 GLU
149 C149 -0.763627 -11.3305 1.36058 C 39 GLU
150 U150 -1.74178 -11.9838 -0.00558922 U 39 GLU
151 C151 -0.742069 -14.2023 -1.28218 C 40 GLU
152 C152 -0.746657 -14.987 -0.0038581 C 40 GLU
153 C153 -0.751244 -15.7718 1.27447 C 40 GLU
154 U154 -1.74665 -14.9856 -0.00656332 U 40 GLU
155 U155 -0.749715 -15.5102 0.84836 U 40 GLU
156 O156 -5.98738 -12.4853 -0.138062 O 41 GLU
157 O157 -5.19226 -12.4161 0.464433 O 41 GLU
158 O158 -4.39715 -12.3468 1.06693 O 41 GLU
159 O159 -3.60203 -12.2776 1.66942 O 41 GLU
160 O160 -2.80692 -12.2084 2.27192 O 41 GLU
161 C161 -6.07202 -13.4837 -0.0583365 C 42 GLU
162 C162 -7.07062 -13.4998 -0.00778569 C 42 GLU
163 U163 -7.05316 -14.4993 0.0185739 U 42 GLU
164 U164 -8.06921 -13.516 0.0427649 U 42 GLU
165 C165 -1.7047 -13.2726 -0.62231 C 43 GLU
166 C166 -0.592613 -13.5821 0.335542 C 43 GLU
167 C167 0.519473 -13.8916 1.29339 C 43 GLU
168 O168 -0.257956 -13.5029 -0.0273985 O 43 GLU
169 C169 -3.75192 -13.494 -1.16679 C 44 GLU
170 C170 -3.74777 -12.4941 -1.15773 C 44 GLU
171 H171 -7.05 -14.5 1.0679e-07 H 45 GLU
172 U172 -0.750006 -13.5 -9.19241e-07 U 45 GLU
173 U173 -0.250005 -12 -9.55266e-07 U 45 GLU
174 U174 -0.250002 -15 -1.41564e-06 U 45 GLU
175 U175 0.249993 -9 -1.35258e-06 U 45 GLU
176 U176 -1.25 -15 -1.25336e-06 U 45 GLU
177 U177 -1.25001 -12 -7.29193e-07 U 45 GLU
178 U178 -3.75 -14.5 -1.14999 U 45 GLU
179 U179 -3.75 -11.5 -1.15 U 45 GLU
180 O180 -6.73278 -6.55017 0.312807 O 46 GLU
181 O181 -5.23679 -6.50987 0.210947 O 46 GLU
182 U182 -3.74079 -6.46958 0.109087 U 46 GLU
183 C183 -3.77623 -5.65754 -1.354 C 47 GLU
184 C184 -3.74719 -4.98964 -0.011213 C 47 GLU
185 C185 -3.71814 -4.32174 1.33157 C 47 GLU
186 U186 -4.74692 -4.99234 0.0117562 U 47 GLU
187 C187 -3.7234 -8.76602 -1.26748 C 48 GLU
188 C188 -3.74921 -8.00064 0.0222871 C 48 GLU
189 C189 -3.77501 -7.23526 1.31206 C 48 GLU
190 U190 -4.74892 -7.99524 -0.000922577 U 48 GLU
191 U191 -3.76641 -7.49039 0.882138 U 48 GLU
192 O192 -10.8617 -5.51099 -0.0540223 O 49 GLU
193 O193 -9.86544 -5.52296 0.0312833 O 49 GLU
194 O194 -8.86915 -5.53493 0.116589 O 49 GLU
195 O195 -7.87287 -5.5469 0.201894 O 49 GLU
196 O196 -6.87659 -5.55887 0.2872 O 49 GLU
197 C197 -11.038 -6.49234 0.0353388 C 50 GLU
198 C198 -10.039 -6.51454 -0.0038805 C 50 GLU
199 U199 -10.0604 -7.51408 0.017288 U 50 GLU
200 U200 -9.04002 -6.53673 -0.0430997 U 50 GLU
201 C201 -3.82925 -7.23163 -1.2757 C 51 GLU
202 C202 -3.74771 -6.50965 0.0365914 C 51 GLU
203 C203 -3.66616 -5.78768 1.34888 C 51 GLU
204 O204 -3.24927 -6.49758 -0.00102395 O 51 GLU
205 C205 -6.74685 -6.49348 -1.14579 C 52 GLU
206 C206 -6.74332 -5.49374 -1.16846 C 52 GLU
207 H207 -10.05 -7.5 1.0679e-07 H 53 GLU
208 U208 -3.75001 -6.5 -9.19241e-07 U 53 GLU
209 U209 -3.25001 -5 -9.55266e-07 U 53 GLU
210 U210 -3.25 -7.99999 -1.41564e-06 U 53 GLU
211 U211 -2.75001 -2 -1.35258e-06 U 53 GLU
212 U212 -4.25 -7.99999 -1.25336e-06 U 53 GLU
213 U213 -4.25001 -5 -7.29193e-07 U 53 GLU
214 U214 -6.75 -7.5 -1.14999 U 53 GLU
215 U215 -6.75 -4.5 -1.15 U 53 GLU
216 C216 2.48582 14.0083 5.49745 C 54 GLU
217 C217 2.49037 14.3092 6.18441 C 54 GLU
218 C218 2.49491 14.6102 6.87138 C 54 GLU
219 C219 1.48644 13.979 5.51691 C 54 GLU
220 C220 1.49553 14.5808 6.89083 C 54 GLU
221 U221 1.47735 13.3771 4.14298 U 54 GLU
222 C222 4.99793 13.9859 5.5098 C 55 GLU
223 C223 5.00148 14.3089 6.18667 C 55 GLU
224 C224 5.00504 14.632 6.86354 C 55 GLU
225 C225 5.99791 13.985 5.50499 C 55 GLU
226 C226 6.00503 14.631 6.85873 C 55 GLU
227 C227 3.74914 15.3087 8.00053 C 56 GLU
228 C228 3.71744 15.5377 7.28708 C 56 GLU
229 C229 3.68574 15.7668 6.57362 C 56 GLU
230 C230 2.99843 16.0493 6.69486 C 56 GLU
231 C231 4.28935 16.2025 6.68668 C 56 GLU
232 C232 2.32214 16.3235 6.81295 C 56 GLU
233 C233 4.88413 16.6275 6.79672 C 56 GLU
234 C234 3.81253 14.8505 9.42745 C 56 GLU
235 H235 3.20631 15.0054 6.49591 H 57 GLU
236 H236 4.32515 15.1214 6.52193 H 58 GLU
237 H237 4.7526 15.3013 7.99503 H 59 GLU
238 C238 3.7633 18.8152 6.5886 C 60 GLU
239 C239 3.75281 18.3293 8.0077 C 60 GLU
240 C240 3.74233 17.8435 9.4268 C 60 GLU
241 U241 2.75337 18.3007 7.99049 U 60 GLU
242 O242 1.75249 17.306 4.6005 O 61 GLU
243 O243 2.48583 17.3102 3.92065 O 61 GLU
244 U244 1.75936 16.306 4.60171 U 61 GLU
245 U245 1.07267 17.3004 3.86715 U 61 GLU
246 O246 5.76921 17.3024 4.59433 O 62 GLU
247 O247 6.39211 17.2805 3.81234 O 62 GLU
248 U248 5.74215 16.3028 4.60078 U 62 GLU
249 U249 4.98737 17.3196 3.97108 U 62 GLU
250 O250 2.4222 18.052 4.0054 O 63 GLU
251 O251 3.42142 18.0469 3.96626 O 63 GLU
252 O252 4.42064 18.0418 3.92712 O 63 GLU
253 O253 5.41987 18.0366 3.88798 O 63 GLU
254 O254 6.41909 18.0315 3.84884 O 63 GLU
255 O255 2.42705 18.5486 4.06387 O 63 GLU
256 O256 3.42626 18.5435 4.02473 O 63 GLU
257 O257 4.42549 18.5383 3.98559 O 63 GLU
258 O258 5.42471 18.5332 3.94645 O 63 GLU
259 O259 6.42393 18.5281 3.90731 O 63 GLU
260 O260 2.44376 18.2417 4.53082 O 63 GLU
261 O261 3.44298 18.2366 4.49168 O 63 GLU
262 O262 4.4422 18.2314 4.45254 O 63 GLU
263 O263 5.44142 18.2263 4.4134 O 63 GLU
264 O264 6.44064 18.2212 4.37426 O 63 GLU
265 U265 2.42462 18.3003 4.03463 U 63 GLU
266 O266 3.74063 17.2663 8.0155 O 64 GLU
267 H267 0.5 14 5.5 H 65 GLU
268 H268 7 14 5.5 H 66 GLU
269 H269 1.75 16.3 4.6 H 67 GLU
270 H270 5.75 16.3 4.6 H 68 GLU
271 H271 4.75 18.3 8 H 69 GLU
272 O272 7.4122 10.2845 6.0434 O 70 GLU
273 O273 8.84722 10.2483 6.4786 O 70 GLU
274 U274 5.97718 10.3207 5.6082 U 70 GLU
275 C275 6.01313 10.8739 4.14163 C 71 GLU
276 C276 6.01255 11.5026 5.5035 C 71 GLU
277 C277 6.01196 12.1314 6.86538 C 71 GLU
278 U278 5.01255 11.5005 5.50407 U 71 GLU
279 C279 5.98601 7.82487 4.15356 C 72 GLU
280 C280 6.00317 8.48931 5.49826 C 72 GLU
281 C281 6.02032 9.15374 6.84296 C 72 GLU
282 U282 5.00351 8.51559 5.49803 U 72 GLU
283 U283 6.0146 8.93226 6.39473 U 72 GLU
284 O284 8.89933 11.2406 6.43311 O 73 GLU
285 O285 9.76816 11.1778 5.94199 O 73 GLU
286 O286 10.637 11.1151 5.45087 O 73 GLU
287 O287 11.5058 11.0523 4.95975 O 73 GLU
288 O288 12.3746 10.9896 4.46863 O 73 GLU
289 C289 12.2982 10.0019 5.48461 C 74 GLU
290 C290 12.327 9.9928 4.48507 C 74 GLU
291 U291 12.3017 9.00194 5.49381 U 74 GLU
292 U292 13.2978 10.0057 5.51338 U 74 GLU
293 C293 6.44307 9.4919 4.31346 C 75 GLU
294 C294 5.98859 10.0439 5.63206 C 75 GLU
295 C295 5.5341 10.596 6.95065 C 75 GLU
296 O296 5.51219 9.99516 5.48828 O 75 GLU
297 C297 9.00278 9.99803 4.34152 C 76 GLU
298 C298 8.99729 10.9979 4.35644 C 76 GLU
299 H299 12.3 9 5.5 H 77 GLU
300 U300 6.00001 10 5.5 U 77 GLU
301 U301 5.50001 11.5 5.5 U 77 GLU
302 U302 5.5 8.50001 5.5 U 77 GLU
303 U303 5.00001 14.5 5.5 U 77 GLU
304 U304 6.5 8.50001 5.5 U 77 GLU
305 U305 6.50001 11.5 5.5 U 77 GLU
306 U306 9 9 4.35001 U 77 GLU
307 U307 9 12 4.35 U 77 GLU
308 O308 -0.947519 9.65059 7.44177 O 78 GLU
309 O309 0.363194 9.77466 6.6344 O 78 GLU
310 U310 1.67328 9.8228 5.99024 U 78 GLU
311 C311 1.48874 12.0747 6.88316 C 79 GLU
312 C312 1.53974 10.3635 2.72156 C 79 GLU
313 C313 1.52274 10.9339 4.10876 C 79 GLU
314 C314 1.50574 11.5043 5.49596 C 79 GLU
315 C315 1.65647 7.49144 2.69247 C 80 GLU
316 C316 1.57421 7.99426 4.10328 C 80 GLU
317 C317 1.49195 8.49708 5.5141 C 80 GLU
318 C318 1.40969 8.9999 6.92492 C 80 GLU
319 O319 -4.60462 11.0208 6.509 O 81 GLU
320 O320 -3.65311 10.9765 6.74112 O 81 GLU
321 O321 -2.68461 10.8475 6.9615 O 81 GLU
322 O322 -1.73611 10.8145 7.20982 O 81 GLU
323 O323 -0.762996 10.7297 7.42489 O 81 GLU
324 C324 -4.77685 10.0472 6.47408 C 82 GLU
325 C325 -4.80128 10.0021 5.4944 C 82 GLU
326 U326 -4.78196 9.91449 4.49803 U 82 GLU
327 C327 0.991447 9.49711 4.47714 C 83 GLU
328 C328 1.5658 9.97683 5.77791 C 83 GLU
329 C329 2.16773 10.4525 7.04372 C 83 GLU
330 O330 1.99536 9.99608 5.51964 O 83 GLU
331 C331 -1.42813 10.0123 4.36907 C 84 GLU
332 C332 -1.46209 10.9952 4.36886 C 84 GLU
333 C333 1.52017 9.96966 9.99937 C 85 GLU
334 C334 1.70151 10.0335 11.0331 C 85 GLU
335 C335 1.57552 11.4997 11.0649 C 85 GLU
336 C336 2.01084 8.60656 9.18806 C 85 GLU
337 C337 1.90175 10.0765 9.2499 C 85 GLU
338 U338 1.54585 10.0369 9.03708 U 85 GLU
339 U339 1.5097 9.05162 9.99275 U 85 GLU
340 H340 1.42265 11.7899 8.93223 H 86 GLU
341 H341 1.33691 12 10.0533 H 87 GLU
342 H342 1.38937 11.8461 7.73719 H 88 GLU
343 H343 1.4862 8.90449 8.63265 H 89 GLU
344 H344 2.56325 9.04486 8.54587 H 90 GLU
345 H345 1.90749 9.10231 7.95863 H 91 GLU
346 H346 -4.80355 9.01214 5.50214 H 92 GLU
347 H347 1.49856 9.99881 5.50151 H 92 GLU
348 H348 2.00172 11.4977 5.50397 H 92 GLU
349 H349 1.99538 8.49776 5.49867 H 92 GLU
350 H350 1.49856 9.99881 5.50151 H 92 GLU
351 H351 0.995383 8.49987 5.49905 H 92 GLU
352 H352 1.00173 11.4999 5.50435 H 92 GLU
353 H353 -1.50398 9.00719 4.35089 H 92 GLU
354 H354 -1.49764 12.0072 4.35619 H 92 GLU
355 H355 1.4992 9.49085 10.0006 H 92 GLU
356 O356 -2.01067 10.4919 0.499048 O 93 GLU
357 O357 -1.07129 10.5382 0.159308 O 93 GLU
358 O358 -1.9746 9.4932 0.462576 O 93 GLU
359 O359 -1.07835 9.51023 0.882626 O 93 GLU
360 U360 -1.96595 10.53 -0.499457 U 93 GLU
361 O361 2.01293 10.4962 0.506199 O 94 GLU
362 O362 2.94503 10.5428 0.147001 O 94 GLU
363 O363 2.05413 9.49732 0.483629 O 94 GLU
364 O364 2.9585 9.52555 0.885282 O 94 GLU
365 U365 2.03742 10.5198 -0.493454 U 94 GLU
366 O366 -1.06262 11.2744 0.233493 O 95 GLU
367 O367 -0.0627023 11.2754 0.22116 O 95 GLU
368 O368 0.937221 11.2764 0.208828 O 95 GLU
369 O369 1.93715 11.2774 0.196496 O 95 GLU
370 O370 2.93708 11.2783 0.184163 O 95 GLU
371 O371 -1.06203 11.7666 0.321168 O 95 GLU
372 O372 -0.062109 11.7676 0.308835 O 95 GLU
373 O373 0.937815 11.7686 0.296503 O 95 GLU
374 O374 1.93774 11.7696 0.284171 O 95 GLU
375 O375 2.93767 11.7706 0.271838 O 95 GLU
376 O376 -1.05617 11.4328 0.769546 O 95 GLU
377 O377 -0.0562473 11.4338 0.757213 O 95 GLU
378 O378 0.943675 11.4348 0.74488 O 95 GLU
379 O379 1.9436 11.4358 0.732548 O 95 GLU
380 O380 2.94353 11.4368 0.720215 O 95 GLU
381 U381 -1.06232 11.5205 0.277331 U 95 GLU
382 O382 -1.04338 8.27257 0.767719 O 96 GLU
383 O383 -0.0433982 8.27631 0.769848 O 96 GLU
384 O384 0.956594 8.28004 0.771977 O 96 GLU
385 O385 1.95659 8.28378 0.774106 O 96 GLU
386 O386 2.95659 8.28751 0.776234 O 96 GLU
387 O387 -1.04535 8.77019 0.816386 O 96 GLU
388 O388 -0.0453609 8.77393 0.818514 O 96 GLU
389 O389 0.954632 8.77767 0.820643 O 96 GLU
390 O390 1.95463 8.7814 0.822772 O 96 GLU
391 O391 2.95462 8.78514 0.8249 O 96 GLU
392 O392 -1.04525 8.47271 1.28968 O 96 GLU
393 O393 -0.0452563 8.47645 1.29181 O 96 GLU
394 O394 0.954735 8.48018 1.29394 O 96 GLU
395 O395 1.95473 8.48392 1.29606 O 96 GLU
396 O396 2.95472 8.48766 1.29819 O 96 GLU
397 U397 -1.04437 8.52138 0.792053 U 96 GLU
398 H398 -1.99539 10.9984 0.494351 H 97 GLU
399 H399 2.00461 10.9966 0.499024 H 97 GLU
400 H400 2.00374 8.99666 0.483696 H 97 GLU
401 H401 -1.99626 8.99845 0.479023 H 97 GLU
402 C402 4.74 27.9959 10.9956 C 98 GLU
403 C403 4.74462 28.2975 11.6823 C 98 GLU
404 C404 4.74924 28.599 12.369 C 98 GLU
405 C405 3.74002 27.9978 11.0015 C 98 GLU
406 C406 3.74926 28.6009 12.3749 C 98 GLU
407 U407 3.73079 27.3948 9.62808 U 98 GLU
408 C408 7.25478 27.9961 10.9982 C 99 GLU
409 C409 7.24885 28.3687 11.6491 C 99 GLU
410 C410 7.24293 28.7414 12.2999 C 99 GLU
411 C411 8.25471 28.0078 11.0006 C 99 GLU
412 C412 8.24286 28.753 12.3024 C 99 GLU
413 C413 6.00829 29.3166 13.4999 C 100 GLU
414 C414 6.02176 29.5437 12.7852 C 100 GLU
415 C415 6.03523 29.7709 12.0706 C 100 GLU
416 C416 5.42175 30.1901 12.1923 C 100 GLU
417 C417 6.71637 30.0727 12.1794 C 100 GLU
418 C418 4.81733 30.5989 12.3108 C 100 GLU
419 C419 7.38667 30.366 12.2852 C 100 GLU
420 C420 5.98135 28.8623 14.9292 C 100 GLU
421 H421 5.44555 29.0692 12.0887 H 101 GLU
422 H422 6.42684 28.9772 11.9739 H 102 GLU
423 H423 7.01482 29.2954 13.5106 H 103 GLU
424 C424 5.96246 32.7531 12.0602 C 104 GLU
425 C425 5.99578 32.3083 13.4923 C 104 GLU
426 C426 6.02909 31.8636 14.9245 C 104 GLU
427 U427 4.99606 32.2932 13.5109 U 104 GLU
428 O428 4.014 31.3042 10.112 O 105 GLU
429 O429 3.33894 31.3073 9.37422 O 105 GLU
430 U430 4.01412 30.3042 10.1076 U 105 GLU
431 U431 3.27623 31.3012 10.787 U 105 GLU
432 O432 8.00027 31.3117 10.1051 O 106 GLU
433 O433 7.2848 31.3019 9.40655 O 106 GLU
434 U434 8.00576 30.3117 10.1136 U 106 GLU
435 U435 7.30165 31.3139 10.8206 U 106 GLU
436 O436 3.35114 32.0479 9.36038 O 107 GLU
437 O437 4.35106 32.048 9.34833 O 107 GLU
438 O438 5.35099 32.0481 9.33628 O 107 GLU
439 O439 6.35092 32.0481 9.32423 O 107 GLU
440 O440 7.35085 32.0482 9.31218 O 107 GLU
441 O441 3.35066 32.5466 9.32336 O 107 GLU
442 O442 4.35058 32.5466 9.31131 O 107 GLU
443 O443 5.35051 32.5467 9.29926 O 107 GLU
444 O444 6.35044 32.5468 9.28721 O 107 GLU
445 O445 7.35037 32.5468 9.27516 O 107 GLU
446 O446 3.3569 32.3343 9.84046 O 107 GLU
447 O447 4.35683 32.3343 9.82841 O 107 GLU
448 O448 5.35676 32.3344 9.81636 O 107 GLU
449 O449 6.35669 32.3345 9.80431 O 107 GLU
450 O450 7.35661 32.3346 9.79226 O 107 GLU
451 U451 3.3509 32.2973 9.34187 U 107 GLU
452 O452 6.00123 31.2782 13.4969 O 108 GLU
453 H453 2.75 28 11 H 109 GLU
454 H454 9.25 28 11 H 110 GLU
455 H455 4 30.3 10.1 H 111 GLU
456 H456 8 30.3 10.1 H 112 GLU
457 H457 7 32.3 13.5 H 113 GLU
458 O458 9.06613 24.2974 12.4128 O 114 GLU
459 O459 10.1695 24.3323 13.4283 O 114 GLU
460 U460 7.96277 24.2624 11.3972 U 114 GLU
461 C461 8.25862 24.7533 9.70522 C 115 GLU
462 C462 8.25488 25.5041 11.0038 C 115 GLU
463 C463 8.25113 26.2548 12.3024 C 115 GLU
464 U464 7.25494 25.4935 11.0071 U 115 GLU
465 C465 8.27508 21.9021 9.64669 C 116 GLU
466 C466 8.24554 22.5002 11.022 C 116 GLU
467 C467 8.216 23.0982 12.3973 C 116 GLU
468 U468 7.24575 22.4977 11.0016 U 116 GLU
469 U469 8.22585 22.8989 11.9389 U 116 GLU
470 O470 10.2861 25.3048 13.2315 O 117 GLU
471 O471 11.1033 25.2293 12.6601 O 117 GLU
472 O472 11.9204 25.1537 12.0886 O 117 GLU
473 O473 12.7376 25.0782 11.5172 O 117 GLU
474 O474 13.5548 25.0027 10.9458 O 117 GLU
475 C475 14.5501 24.0054 10.993 C 118 GLU
476 C476 13.5512 24.0145 11.0398 C 118 GLU
477 U477 14.542 23.0057 11.0152 U 118 GLU
478 U478 14.5031 23.9836 9.99431 U 118 GLU
479 C479 9.17715 23.7878 10.3558 C 119 GLU
480 C480 8.09022 24.1699 11.3164 C 119 GLU
481 C481 7.00328 24.5519 12.2769 C 119 GLU
482 O482 7.74626 24.0084 10.9913 O 119 GLU
483 C483 11.2583 24.0081 9.84788 C 120 GLU
484 C484 11.2561 25.0079 9.8699 C 120 GLU
485 H485 14.55 23 11 H 121 GLU
486 U486 8.25001 24 11 U 121 GLU
487 U487 7.75001 25.5 11 U 121 GLU
488 U488 7.75 22.5 11 U 121 GLU
489 U489 7.25001 28.5 11 U 121 GLU
490 U490 8.75 22.5 11 U 121 GLU
491 U491 8.75001 25.5 11 U 121 GLU
492 U492 11.25 23 9.85001 U 121 GLU
493 U493 11.25 26 9.85 U 121 GLU
494 O494 1.73425 24.0107 13.5284 O 122 GLU
495 O495 2.83578 23.996 12.446 O 122 GLU
496 U496 3.76428 23.9595 11.319 U 122 GLU
497 C497 3.7043 26.0967 12.3714 C 123 GLU
498 C498 3.83742 24.3665 8.21941 C 123 GLU
499 C499 3.79305 24.9432 9.60339 C 123 GLU
500 C500 3.74867 25.5199 10.9874 C 123 GLU
501 C501 3.80611 21.5922 8.13571 C 124 GLU
502 C502 3.77877 22.0451 9.56542 C 124 GLU
503 C503 3.75144 22.4981 10.9951 C 124 GLU
504 C504 3.72411 22.9511 12.4248 C 124 GLU
505 O505 -1.38509 25.0494 11.0314 O 125 GLU
506 O506 -0.597739 25.0871 11.6144 O 125 GLU
507 O507 0.17898 25.0531 12.2459 O 125 GLU
508 O508 0.963377 25.1103 12.8323 O 125 GLU
509 O509 1.76072 25.1048 13.4361 O 125 GLU
510 C510 -1.57377 24.055 11.0382 C 126 GLU
511 C511 -2.55286 24.0058 11.0012 C 126 GLU
512 U512 -3.55227 24.0161 10.9581 U 126 GLU
513 C513 3.01783 23.4783 10.2405 C 127 GLU
514 C514 3.87714 24.0172 11.3465 C 127 GLU
515 C515 4.75543 24.5491 12.4126 C 127 GLU
516 O516 4.2383 24.0069 10.9985 O 127 GLU
517 C517 0.754832 24.007 9.90489 C 128 GLU
518 C518 0.760481 24.9903 9.88504 C 128 GLU
519 C519 3.7468 23.9774 15.5006 C 129 GLU
520 C520 4.78618 24.0539 15.3614 C 129 GLU
521 C521 4.79629 25.5195 15.4979 C 129 GLU
522 C522 2.97137 22.6087 14.969 C 129 GLU
523 C523 3.01209 24.0785 15.0899 C 129 GLU
524 U524 2.78561 24.0341 15.4366 U 129 GLU
525 U525 3.75018 23.0593 15.5049 U 129 GLU
526 H526 4.57264 26.5988 13.8898 H 130 GLU
527 H527 5.08881 25.9877 14.5354 H 131 GLU
528 H528 4.20793 25.7896 13.0678 H 132 GLU
529 H529 3.33967 22.1738 14.2101 H 133 GLU
530 H530 3.65282 23.0236 14.5206 H 134 GLU
531 H531 3.60908 22.8112 13.5701 H 135 GLU
532 H532 -2.55205 23.0051 10.9989 H 136 GLU
533 H533 3.74836 24.0026 11.0016 H 136 GLU
534 H534 4.24896 25.5024 11.0033 H 136 GLU
535 H535 4.24775 22.5024 11.0001 H 136 GLU
536 H536 3.74836 24.0026 11.0016 H 136 GLU
537 H537 3.24775 22.5028 10.9998 H 136 GLU
538 H538 3.24897 25.5028 11.0031 H 136 GLU
539 H539 0.74825 23.005 9.84974 H 136 GLU
540 H540 0.749462 26.005 9.85297 H 136 GLU
541 H541 3.74703 23.4977 15.501 H 136 GLU
542 O542 0.236712 24.5015 6.02698 O 137 GLU
543 O543 -0.166312 24.5466 5.1129 O 137 GLU
544 O544 0.221483 23.5025 5.98439 O 137 GLU
545 O545 0.579909 23.5363 5.06223 O 137 GLU
546 U546 -0.763162 24.5157 6.04953 U 137 GLU
547 O547 4.25857 24.5089 6.01037 O 138 GLU
548 O548 3.84002 24.5401 5.10271 O 138 GLU
549 O549 4.22097 23.5098 5.9934 O 138 GLU
550 O550 4.56318 23.5127 5.06448 O 138 GLU
551 U551 3.25982 24.5458 6.05023 U 138 GLU
552 O552 -0.152916 25.2814 5.20573 O 139 GLU
553 O553 0.847054 25.2764 5.20072 O 139 GLU
554 O554 1.84703 25.2715 5.19571 O 139 GLU
555 O555 2.84701 25.2665 5.1907 O 139 GLU
556 O556 3.84699 25.2616 5.18569 O 139 GLU
557 O557 -0.150186 25.7784 5.26033 O 139 GLU
558 O558 0.849784 25.7734 5.25532 O 139 GLU
559 O559 1.84976 25.7685 5.25031 O 139 GLU
560 O560 2.84974 25.7635 5.24529 O 139 GLU
561 O561 3.84972 25.7586 5.24028 O 139 GLU
562 O562 -0.149332 25.4752 5.73003 O 139 GLU
563 O563 0.850641 25.4703 5.72502 O 139 GLU
564 O564 1.85062 25.4654 5.72001 O 139 GLU
565 O565 2.85059 25.4604 5.715 O 139 GLU
566 O566 3.85057 25.4555 5.70999 O 139 GLU
567 U567 -0.151551 25.5299 5.23303 U 139 GLU
568 O568 0.549835 22.2887 5.05411 O 140 GLU
569 O569 1.54981 22.2829 5.05385 O 140 GLU
570 O570 2.5498 22.2772 5.0536 O 140 GLU
571 O571 3.54979 22.2714 5.05334 O 140 GLU
572 O572 4.54978 22.2657 5.05309 O 140 GLU
573 O573 0.552708 22.7887 5.05379 O 140 GLU
574 O574 1.55269 22.7829 5.05353 O 140 GLU
575 O575 2.55267 22.7772 5.05328 O 140 GLU
576 O576 3.55266 22.7714 5.05302 O 140 GLU
577 O577 4.55265 22.7657 5.05277 O 140 GLU
578 O578 0.551399 22.539 5.55395 O 140 GLU
579 O579 1.55138 22.5333 5.55369 O 140 GLU
580 O580 2.55137 22.5275 5.55344 O 140 GLU
581 O581 3.55135 22.5218 5.55318 O 140 GLU
582 O582 4.55134 22.516 5.55293 O 140 GLU
583 U583 0.551271 22.5387 5.05395 U 140 GLU
584 H584 0.249852 24.9997 5.99815 H 141 GLU
585 H585 4.24985 25.0023 6.00177 H 141 GLU
586 H586 4.25116 23.0023 6.00075 H 141 GLU
587 H587 0.251164 22.9997 5.99713 H 141 GLU
588 C588 7.01034 42.0175 16.4848 C 142 GLU
589 C589 7.02099 42.3443 17.1598 C 142 GLU
590 C590 7.03164 42.671 17.8348 C 142 GLU
591 C591 6.01072 42.0022 16.508 C 142 GLU
592 C592 6.03203 42.6556 17.858 C 142 GLU
593 U593 5.98942 41.3488 15.158 U 142 GLU
594 C594 9.5058 41.9974 16.5095 C 143 GLU
595 C595 9.50825 42.4189 17.1299 C 143 GLU
596 C596 9.5107 42.8403 17.7503 C 143 GLU
597 C597 10.5056 42.0101 16.497 C 143 GLU
598 C598 10.5105 42.853 17.7377 C 143 GLU
599 C599 8.24455 43.3234 19.0063 C 144 GLU
600 C600 8.19423 43.6224 18.3203 C 144 GLU
601 C601 8.14392 43.9215 17.6344 C 144 GLU
602 C602 7.47058 44.2094 17.8093 C 144 GLU
603 C603 8.76451 44.3271 17.7657 C 144 GLU
604 C604 6.80789 44.4892 17.9798 C 144 GLU
605 C605 9.37584 44.7227 17.8933 C 144 GLU
606 C606 8.34519 42.7254 20.3782 C 144 GLU
607 H607 7.64546 43.2063 17.4517 H 145 GLU
608 H608 8.76091 43.2653 17.4867 H 146 GLU
609 H609 9.24524 43.3 18.9921 H 147 GLU
610 C610 8.25226 46.9296 17.6269 C 148 GLU
611 C611 8.25342 46.3184 18.9967 C 148 GLU
612 C612 8.25459 45.7073 20.3666 C 148 GLU
613 U613 7.25352 46.3056 18.9919 U 148 GLU
614 O614 6.25199 45.3029 15.5953 O 149 GLU
615 O615 5.5408 45.2947 16.2982 O 149 GLU
616 U616 6.25497 44.3029 15.5866 U 149 GLU
617 U617 6.95499 45.2988 16.3064 U 149 GLU
618 O618 10.2365 45.2877 15.6032 O 150 GLU
619 O619 9.47319 45.269 16.249 O 150 GLU
620 U620 10.2449 44.288 15.5843 U 150 GLU
621 U621 10.8825 45.2787 16.3665 U 150 GLU
622 O622 5.50681 46.0463 16.3266 O 151 GLU
623 O623 6.50578 46.0386 16.2819 O 151 GLU
624 O624 7.50475 46.0309 16.2373 O 151 GLU
625 O625 8.50373 46.0232 16.1927 O 151 GLU
626 O626 9.5027 46.0156 16.148 O 151 GLU
627 O627 5.51061 46.5462 16.3258 O 151 GLU
628 O628 6.50958 46.5386 16.2811 O 151 GLU
629 O629 7.50856 46.5309 16.2365 O 151 GLU
630 O630 8.50753 46.5232 16.1918 O 151 GLU
631 O631 9.50651 46.5156 16.1472 O 151 GLU
632 O632 5.53103 46.2969 16.8257 O 151 GLU
633 O633 6.53 46.2892 16.781 O 151 GLU
634 O634 7.52898 46.2816 16.7364 O 151 GLU
635 O635 8.52795 46.2739 16.6918 O 151 GLU
636 O636 9.52693 46.2662 16.6471 O 151 GLU
637 U637 5.50871 46.2963 16.3262 U 151 GLU
638 O638 8.25799 45.2657 19.0015 O 152 GLU
639 H639 5 42 16.5 H 153 GLU
640 H640 11.5 42 16.5 H 154 GLU
641 H641 6.25 44.3 15.6 H 155 GLU
642 H642 10.25 44.3 15.6 H 156 GLU
643 H643 9.25 46.3 19 H 157 GLU
644 O644 11.7442 38.3029 17.4403 O 158 GLU
645 O645 12.7732 38.3146 18.5316 O 158 GLU
646 U646 10.7151 38.2911 16.349 U 158 GLU
647 C647 10.485 38.6692 15.2445 C 159 GLU
648 C648 10.5018 39.5059 16.4893 C 159 GLU
649 C649 10.5185 40.3426 17.7341 C 159 GLU
650 U650 9.50183 39.5112 16.4992 U 159 GLU
651 C651 10.4983 35.8609 15.1391 C 160 GLU
652 C652 10.4995 36.4993 16.4964 C 160 GLU
653 C653 10.5007 37.1376 17.8538 C 160 GLU
654 U654 9.49956 36.4908 16.5013 U 160 GLU
655 U655 10.5003 36.9248 17.4014 U 160 GLU
656 O656 12.8898 39.3118 18.4617 O 161 GLU
657 O657 13.8571 39.2308 18.2215 O 161 GLU
658 O658 14.8245 39.1499 17.9814 O 161 GLU
659 O659 15.7918 39.0689 17.7413 O 161 GLU
660 O660 16.7592 38.9879 17.5011 O 161 GLU
661 C661 16.8055 37.9994 16.5082 C 162 GLU
662 C662 16.7481 38.0003 17.5065 C 162 GLU
663 U663 16.7979 36.9994 16.5086 U 162 GLU
664 U664 15.8072 38.0069 16.4508 U 162 GLU
665 C665 11.2201 37.4654 15.6714 C 163 GLU
666 C666 10.4099 38.11 16.7568 C 163 GLU
667 C667 9.59969 38.7546 17.8422 C 163 GLU
668 O668 9.98981 37.9968 16.5104 O 163 GLU
669 C669 13.4987 38.0075 15.3543 C 164 GLU
670 C670 13.5075 39.0075 15.3509 C 164 GLU
671 H671 16.8 37 16.5 H 165 GLU
672 U672 10.5 38 16.5 U 165 GLU
673 U673 10 39.5 16.5 U 165 GLU
674 U674 10 36.5 16.5 U 165 GLU
675 U675 9.50001 42.5 16.5 U 165 GLU
676 U676 11 36.5 16.5 U 165 GLU
677 U677 11 39.5 16.5 U 165 GLU
678 U678 13.5 37 15.35 U 165 GLU
679 U679 13.5 40 15.35 U 165 GLU
680 O680 3.1385 38.3196 17.5908 O 166 GLU
681 O681 4.58953 38.1762 17.0818 O 166 GLU
682 U682 5.97134 37.9132 16.6881 U 166 GLU
683 C683 6.07394 40.1654 17.8631 C 167 GLU
684 C684 5.87282 38.2237 13.8085 C 167 GLU
685 C685 5.93986 38.8709 15.16 C 167 GLU
686 C686 6.0069 39.5182 16.5116 C 167 GLU
687 C687 5.97221 35.572 13.6396 C 168 GLU
688 C688 5.99177 36.0421 15.0639 C 168 GLU
689 C689 6.01132 36.5122 16.4882 C 168 GLU
690 C690 6.03088 36.9823 17.9125 C 168 GLU
691 O691 -0.111641 38.8957 15.268 O 169 GLU
692 O692 0.728478 39.0213 15.7575 O 169 GLU
693 O693 1.54332 39.1326 16.3292 O 169 GLU
694 O694 2.38753 39.2749 16.8083 O 169 GLU
695 O695 3.22637 39.3808 17.3426 O 169 GLU
696 C696 -0.261572 37.9452 15.5178 C 170 GLU
697 C697 -0.287411 37.9995 16.497 C 170 GLU
698 U698 -0.268275 38.0145 17.4971 U 170 GLU
699 C699 5.71173 37.4464 15.3054 C 171 GLU
700 C700 6.02497 38.0421 16.6466 C 171 GLU
701 C701 6.37234 38.628 17.9607 C 171 GLU
702 O702 6.50076 38.0056 16.4921 O 171 GLU
703 C703 3.01644 38.0171 15.3545 C 172 GLU
704 C704 3.04749 39 15.3419 C 172 GLU
705 C705 5.9952 37.9758 21.0046 C 173 GLU
706 C706 5.8203 38.0448 19.9701 C 173 GLU
707 C707 5.9282 39.5126 19.9494 C 173 GLU
708 C708 5.51593 36.601 21.8028 C 173 GLU
709 C709 5.6071 38.0726 21.7521 C 173 GLU
710 U710 5.96197 38.0359 21.9671 U 173 GLU
711 U711 6.01709 37.058 21.0048 U 173 GLU
712 H712 5.11462 39.6933 18.0664 H 174 GLU
713 H713 5.62566 39.5124 18.9315 H 175 GLU
714 H714 5.95301 40.1109 18.7469 H 176 GLU
715 H715 6.03896 36.7683 20.0043 H 177 GLU
716 H716 5.74069 36.3113 20.9013 H 178 GLU
717 H717 5.84863 36.634 19.0574 H 179 GLU
718 H718 -0.292927 36.9964 16.4919 H 180 GLU
719 H719 6.0058 38.0044 16.5007 H 180 GLU
720 H720 6.50389 39.505 16.5044 H 180 GLU
721 H721 6.5077 36.505 16.498 H 180 GLU
722 H722 6.0058 38.0044 16.5007 H 180 GLU
723 H723 5.5077 36.5037 16.497 H 180 GLU
724 H724 5.5039 39.5037 16.5033 H 180 GLU
725 H725 3.00828 37.003 15.3454 H 180 GLU
726 H726 3.00447 40.003 15.3518 H 180 GLU
727 H727 6.00174 37.4948 20.9996 H 180 GLU
728 O728 2.50497 38.5019 11.4878 O 181 GLU
729 O729 1.57715 38.5151 11.8605 O 181 GLU
730 O730 2.4903 37.502 11.4868 O 181 GLU
731 O731 1.57992 37.5157 11.0982 O 181 GLU
732 U732 2.49401 38.501 12.4879 U 181 GLU
733 O733 6.51004 38.5073 11.4943 O 182 GLU
734 O734 5.60126 38.5283 11.9111 O 182 GLU
735 O735 6.49907 37.5077 11.5207 O 182 GLU
736 O736 5.57094 37.5088 11.1764 O 182 GLU
737 U737 6.5474 38.5333 12.4935 U 182 GLU
738 O738 1.63256 39.2455 11.7827 O 183 GLU
739 O739 2.63192 39.2542 11.817 O 183 GLU
740 O740 3.6313 39.263 11.8513 O 183 GLU
741 O741 4.63068 39.2717 11.8855 O 183 GLU
742 O742 5.63005 39.2805 11.9198 O 183 GLU
743 O743 1.62814 39.7454 11.7837 O 183 GLU
744 O744 2.62751 39.7542 11.818 O 183 GLU
745 O745 3.62688 39.763 11.8523 O 183 GLU
746 O746 4.62626 39.7717 11.8865 O 183 GLU
747 O747 5.62564 39.7805 11.9208 O 183 GLU
748 O748 1.61322 39.4943 12.2829 O 183 GLU
749 O749 2.61259 39.5031 12.3172 O 183 GLU
750 O750 3.61196 39.5118 12.3515 O 183 GLU
751 O751 4.61134 39.5206 12.3857 O 183 GLU
752 O752 5.61071 39.5293 12.42 O 183 GLU
753 U753 1.63035 39.4955 11.7832 U 183 GLU
754 O754 1.58525 36.2706 11.1397 O 184 GLU
755 O755 2.58456 36.2699 11.1769 O 184 GLU
756 O756 3.58387 36.2693 11.2141 O 184 GLU
757 O757 4.58318 36.2686 11.2512 O 184 GLU
758 O758 5.58249 36.2679 11.2884 O 184 GLU
759 O759 1.58705 36.7691 11.1004 O 184 GLU
760 O760 2.58636 36.7684 11.1376 O 184 GLU
761 O761 3.58567 36.7677 11.1748 O 184 GLU
762 O762 4.58498 36.767 11.212 O 184 GLU
763 O763 5.58429 36.7664 11.2492 O 184 GLU
764 O764 1.56764 36.5592 11.6182 O 184 GLU
765 O765 2.56695 36.5585 11.6553 O 184 GLU
766 O766 3.56626 36.5578 11.6925 O 184 GLU
767 O767 4.56557 36.5571 11.7297 O 184 GLU
768 O768 5.56488 36.5565 11.7669 O 184 GLU
769 U769 1.58615 36.5199 11.12 U 184 GLU
770 H770 2.50109 39.0055 11.4993 H 185 GLU
771 H771 6.50108 39.0018 11.5007 H 185 GLU
772 H772 6.49921 37.0018 11.4995 H 185 GLU
773 H773 2.49922 37.0055 11.4981 H 185 GLU
774 O774 5.26046 50.608 19.3054 O 186 GLU
775 O775 6.75127 50.6407 19.1428 O 186 GLU
776 U776 8.24207 50.6734 18.9802 U 186 GLU
777 C777 8.21371 52.7928 17.7153 C 187 GLU
778 C778 8.23415 52.0126 18.9963 C 187 GLU
779 C779 8.25458 51.2324 20.2773 C 187 GLU
780 U780 7.23425 52.0007 19.005 U 187 GLU
781 C781 8.26744 49.6066 17.6309 C 188 GLU
782 C782 8.25824 48.9992 19.0023 C 188 GLU
783 C783 8.24904 48.3917 20.3738 C 188 GLU
784 U784 7.25827 48.9975 18.9949 U 188 GLU
785 O785 1.28872 51.5115 18.3054 O 189 GLU
786 O786 2.25966 51.5336 18.5437 O 189 GLU
787 O787 3.23061 51.5558 18.7819 O 189 GLU
788 O788 4.20156 51.5779 19.0202 O 189 GLU
789 O789 5.17251 51.6 19.2584 O 189 GLU
790 C790 1.23315 50.5098 18.3201 C 190 GLU
791 C791 1.96801 50.4994 18.9983 C 190 GLU
792 U792 1.94442 49.4997 19.0084 U 190 GLU
793 U793 2.70287 50.4889 19.6764 U 190 GLU
794 U794 2.64582 50.4759 18.2634 U 190 GLU
795 C795 8.16515 51.1552 17.6798 C 191 GLU
796 C796 8.24075 50.5125 19.0331 C 191 GLU
797 C797 8.31635 49.8698 20.3863 C 191 GLU
798 O798 8.73956 50.5021 19.0003 O 191 GLU
799 C799 5.24626 50.4999 17.8657 C 192 GLU
800 C800 5.24606 51.4997 17.8436 C 192 GLU
801 H801 1.95 49.5 19 H 193 GLU
802 U802 8.24999 50.5 19 U 193 GLU
803 U803 8.74999 52 19 U 193 GLU
804 U804 8.75 49 19 U 193 GLU
805 U805 9.24999 55 19 U 193 GLU
806 U806 7.75 49 19 U 193 GLU
807 U807 7.74999 52 19 U 193 GLU
808 U808 5.25 49.5 17.85 U 193 GLU
809 U809 5.25 52.5 17.85 U 193 GLU
@<TRIPOS>BOND
1 3 20 4
2 5 141 4
3 9 21 4
4 11 59 4
5 14 20 4
6 14 21 4
7 19 25 4
8 20 3 4
9 20 14 4
10 21 9 4
11 21 14 4
12 24 51 4
13 25 19 4
14 25 316 4
15 51 24 4
16 59 70 4
17 59 11 4
18 62 106 4
19 70 59 4
20 106 62 4
21 138 185 4
22 141 149 4
23 141 5 4
24 149 141 4
25 185 138 4
26 218 235 4
27 220 311 4
28 224 236 4
29 226 277 4
30 229 235 4
31 229 236 4
32 234 240 4
33 235 218 4
34 235 229 4
35 236 224 4
36 236 229 4
37 239 266 4
38 240 234 4
39 240 502 4
40 266 239 4
41 277 226 4
42 311 220 4
43 316 25 4
44 404 421 4
45 406 497 4
46 410 422 4
47 412 463 4
48 415 421 4
49 415 422 4
50 420 426 4
51 421 404 4
52 421 415 4
53 422 410 4
54 422 415 4
55 425 452 4
56 426 420 4
57 426 688 4
58 452 425 4
59 463 412 4
60 497 406 4
61 502 240 4
62 590 607 4
63 592 683 4
64 596 608 4
65 598 649 4
66 601 607 4
67 601 608 4
68 606 612 4
69 607 590 4
70 607 601 4
71 608 596 4
72 608 601 4
73 611 638 4
74 612 606 4
75 612 783 4
76 638 611 4
77 649 598 4
78 683 592 4
79 688 426 4
80 783 612 4
