#
#
#

#
#

@<TRIPOS>MOLECULE
Panda
809 986
SMALL
NO CHARGES


@<TRIPOS>ATOM
1 C1 0.256344 -0.00739799 -0.0104086 C 0 ALA
2 C2 0.270328 0.325314 0.661608 C 0 ALA
3 C3 0.284311 0.658028 1.33363 C 0 ALA
4 C4 -0.743423 0.0105662 0.00149989 C 0 ALA
5 C5 -0.715457 0.675993 1.34554 C 0 ALA
6 U6 -0.77139 -0.654859 -1.34254 U 0 ALA
7 C7 2.74847 0.0133016 -0.0127676 C 1 ARG
8 C8 2.73989 0.334802 0.664775 C 1 ARG
9 C9 2.73131 0.656302 1.34232 C 1 ARG
10 C10 3.74831 0.00589296 0.00340584 C 1 ARG
11 C11 3.73115 0.648894 1.35849 C 1 ARG
12 C12 1.49906 1.3107 2.48407 C 2 ASN
13 C13 1.51381 1.56143 1.77737 C 2 ASN
14 C14 1.52856 1.81216 1.07068 C 2 ASN
15 C15 0.891179 2.19391 1.19282 C 2 ASN
16 C16 2.19026 2.14614 1.20298 C 2 ASN
17 C17 0.263473 2.56587 1.31168 C 2 ASN
18 C18 2.84165 2.47107 1.33186 C 2 ASN
19 C19 1.46955 0.809244 3.89746 C 2 ASN
20 H20 0.938021 1.14939 0.90448 H 3 ASP
21 H21 2.04599 1.07932 0.931266 H 4 ASP
22 H22 2.50222 1.30891 2.47547 H 5 GLY
23 C23 1.52139 4.83823 1.10114 C 6 THY
24 C24 1.49354 4.32533 2.51046 C 6 THY
25 C25 1.46568 3.81243 3.91977 C 6 THY
26 U26 0.494074 4.30627 2.48377 U 6 THY
27 O27 -0.496814 3.29215 -0.897007 O 7 ALA
28 O28 0.229074 3.28985 -0.209198 O 7 ALA
29 U29 -0.512232 2.29235 -0.884082 U 7 ALA
30 U30 0.190825 3.27217 -1.62278 U 7 ALA
31 O31 3.50054 3.29272 -0.908758 O 8 ALA
32 O32 4.29307 3.28465 -0.298973 O 8 ALA
33 U33 3.49621 2.29276 -0.916358 U 8 ALA
34 U34 4.11037 3.2961 -1.70129 U 8 ALA
35 O35 0.286437 4.00648 -0.352716 O 9 ALA
36 O36 1.28641 4.01053 -0.358125 O 9 ALA
37 O37 2.28639 4.01457 -0.363532 O 9 ALA
38 O38 3.28637 4.01861 -0.368939 O 9 ALA
39 O39 4.28635 4.02265 -0.374347 O 9 ALA
40 O40 0.283882 4.4948 -0.460168 O 9 ALA
41 O41 1.28386 4.49884 -0.465576 O 9 ALA
42 O42 2.28383 4.50288 -0.470983 O 9 ALA
43 O43 3.28382 4.50692 -0.47639 O 9 ALA
44 O44 4.28379 4.51096 -0.481798 O 9 ALA
45 O45 0.287363 4.3581 0.0818683 O 9 ALA
46 O46 1.28734 4.36214 0.0764603 O 9 ALA
47 O47 2.28732 4.36619 0.0710532 O 9 ALA
48 O48 3.2873 4.37023 0.0656461 O 9 ALA
49 O49 4.28728 4.37427 0.060238 O 9 ALA
50 U50 0.285159 4.25064 -0.406442 U 9 ALA
51 O51 1.49816 3.27137 2.50352 O 10 GLY
52 H52 -1.75 0 0 H 11 GLY
53 H53 4.75 0 0 H 12 GLY
54 H54 -0.5 2.3 -0.9 H 13 GLY
55 H55 3.5 2.3 -0.9 H 14 GLY
56 H56 2.5 4.3 2.5 H 15 GLY
57 C57 3.7522 -3.17739 -1.34407 C 16 ASP
58 C58 3.74523 -2.52096 0.00465238 C 16 ASP
59 C59 3.73827 -1.86454 1.35338 C 16 ASP
60 C60 6.75214 -3.16121 -1.33646 C 16 ASP
61 C61 6.74518 -2.50479 0.0122659 C 16 ASP
62 C62 6.73822 -1.84836 1.36099 C 16 ASP
63 H63 2.75 -2.5 0 H 17 GLY
64 H64 7.75 -2.5 0 H 18 GLY
65 O65 4.34488 -13.4696 1.64607 O 19 ASP
66 O66 5.55422 -13.4967 2.53306 O 19 ASP
67 U67 3.13554 -13.4424 0.759073 U 19 ASP
68 C68 3.76699 -12.6169 -1.34987 C 20 ASN
69 C69 3.75056 -11.9887 0.0121242 C 20 ASN
70 C70 3.73413 -11.3604 1.37412 C 20 ASN
71 U71 2.75063 -11.9897 0.000530038 U 20 ASN
72 C72 3.73022 -14.1369 -1.22274 C 21 ASP
73 C73 3.75217 -15.0023 0.00220699 C 21 ASP
74 C74 3.77411 -15.8678 1.22716 C 21 ASP
75 U75 2.75227 -15.0111 0.0139163 U 21 ASP
76 U76 3.7668 -15.5793 0.81884 U 21 ASP
77 O77 5.70038 -12.5307 2.28005 O 22 ARG
78 O78 6.49899 -12.5333 1.67821 O 22 ARG
79 O79 7.29761 -12.536 1.07637 O 22 ARG
80 O80 8.09622 -12.5386 0.474535 O 22 ARG
81 O81 8.89484 -12.5412 -0.127302 O 22 ARG
82 C82 10.036 -13.5055 -0.00384778 C 23 ASN
83 C83 9.03992 -13.5257 -0.0899884 C 23 ASN
84 U84 10.057 -14.5053 -0.0119002 U 23 ASN
85 U85 11.0321 -13.4853 0.0822926 U 23 ASN
86 C86 4.75768 -13.4107 -0.447872 C 24 ARG
87 C87 3.51652 -13.4032 0.394428 C 24 ARG
88 C88 2.27536 -13.3957 1.23673 C 24 ARG
89 O89 3.24103 -13.5034 -0.0106167 O 24 ARG
90 C90 6.75012 -13.4951 -1.14309 C 25 GLY
91 C91 6.75132 -12.4951 -1.14958 C 25 GLY
92 H92 10.05 -14.5 1.0679e-07 H 26 GLY
93 U93 3.75001 -13.5 -9.19241e-07 U 26 GLY
94 U94 3.25001 -12 -9.55266e-07 U 26 GLY
95 U95 3.25 -15 -1.41564e-06 U 26 GLY
96 U96 2.75001 -9 -1.35258e-06 U 26 GLY
97 U97 4.25 -15 -1.25336e-06 U 26 GLY
98 U98 4.25001 -12 -7.29193e-07 U 26 GLY
99 U99 6.75 -14.5 -1.14999 U 26 GLY
100 U100 6.75 -11.5 -1.15 U 26 GLY
101 O101 8.24587 -6.63009 0.317445 O 27 ASP
102 O102 9.74583 -6.61931 0.317382 O 27 ASP
103 U103 6.74591 -6.64087 0.317508 U 27 ASP
104 C104 6.75236 -5.64212 -1.35201 C 28 ASN
105 C105 6.74359 -4.99487 0.00113345 C 28 ASN
106 C106 6.73482 -4.34762 1.35427 C 28 ASN
107 U107 5.74361 -4.99948 -0.00314883 U 28 ASN
108 C108 6.73865 -8.72049 -1.31646 C 29 ASP
109 C109 6.74259 -8.01286 0.0061275 C 29 ASP
110 C110 6.74652 -7.30522 1.32871 C 29 ASP
111 U111 5.74276 -7.9956 -0.000129069 U 29 ASP
112 U112 6.74521 -7.5411 0.887853 U 29 ASP
113 O113 9.90406 -5.63683 0.36819 O 30 ARG
114 O114 10.8965 -5.60628 0.249039 O 30 ARG
115 O115 11.8889 -5.57573 0.129889 O 30 ARG
116 O116 12.8813 -5.54518 0.0107386 O 30 ARG
117 O117 13.8737 -5.51463 -0.108412 O 30 ARG
118 C118 13.0495 -6.50254 -0.0090714 C 31 ASN
119 C119 14.0486 -6.49489 -0.0502669 C 31 ASN
120 U120 13.0581 -7.50224 0.013548 U 31 ASN
121 C121 6.90073 -7.14627 -1.30103 C 32 ARG
122 C122 6.75432 -6.51308 0.0508672 C 32 ARG
123 C123 6.60791 -5.87989 1.40277 C 32 ARG
124 O124 6.25839 -6.49648 -0.0106156 O 32 ARG
125 C125 9.74202 -6.5036 -1.14964 C 33 GLY
126 C126 9.75282 -5.50366 -1.1499 C 33 GLY
127 H127 13.05 -7.5 1.0679e-07 H 34 GLY
128 U128 6.75001 -6.5 -9.19241e-07 U 34 GLY
129 U129 6.25001 -5 -9.55266e-07 U 34 GLY
130 U130 6.25 -7.99999 -1.41564e-06 U 34 GLY
131 U131 5.75001 -2 -1.35258e-06 U 34 GLY
132 U132 7.25 -7.99999 -1.25336e-06 U 34 GLY
133 U133 7.25001 -5 -7.29193e-07 U 34 GLY
134 U134 9.75 -7.5 -1.14999 U 34 GLY
135 U135 9.75 -4.5 -1.15 U 34 GLY
136 C136 -3.74424 -3.18648 -1.32944 C 35 ASP
137 C137 -3.74307 -2.50181 0.0051863 C 35 ASP
138 C138 -3.7419 -1.81713 1.33981 C 35 ASP
139 C139 -0.744243 -3.19061 -1.32995 C 35 ASP
140 C140 -0.743072 -2.50593 0.00467297 C 35 ASP
141 C141 -0.741901 -1.82126 1.3393 C 35 ASP
142 H142 -4.75 -2.5 0 H 36 GLY
143 H143 0.25 -2.5 0 H 37 GLY
144 O144 -2.65093 -13.2014 2.34959 O 38 ASP
145 O145 -1.42359 -13.1353 1.48979 O 38 ASP
146 U146 -0.196239 -13.0693 0.629987 U 38 ASP
147 C147 -0.720136 -12.6227 -1.34653 C 39 ASN
148 C148 -0.741881 -11.9766 0.00702556 C 39 ASN
149 C149 -0.763627 -11.3305 1.36058 C 39 ASN
150 U150 -1.74178 -11.9838 -0.00558922 U 39 ASN
151 C151 -0.742069 -14.2023 -1.28218 C 40 ASP
152 C152 -0.746657 -14.987 -0.0038581 C 40 ASP
153 C153 -0.751244 -15.7718 1.27447 C 40 ASP
154 U154 -1.74665 -14.9856 -0.00656332 U 40 ASP
155 U155 -0.749715 -15.5102 0.84836 U 40 ASP
156 O156 -5.98738 -12.4853 -0.138062 O 41 ARG
157 O157 -5.19226 -12.4161 0.464433 O 41 ARG
158 O158 -4.39715 -12.3468 1.06693 O 41 ARG
159 O159 -3.60203 -12.2776 1.66942 O 41 ARG
160 O160 -2.80692 -12.2084 2.27192 O 41 ARG
161 C161 -6.07202 -13.4837 -0.0583365 C 42 ASN
162 C162 -7.07062 -13.4998 -0.00778569 C 42 ASN
163 U163 -7.05316 -14.4993 0.0185739 U 42 ASN
164 U164 -8.06921 -13.516 0.0427649 U 42 ASN
165 C165 -1.7047 -13.2726 -0.62231 C 43 ARG
166 C166 -0.592613 -13.5821 0.335542 C 43 ARG
167 C167 0.519473 -13.8916 1.29339 C 43 ARG
168 O168 -0.257956 -13.5029 -0.0273985 O 43 ARG
169 C169 -3.75192 -13.494 -1.16679 C 44 GLY
170 C170 -3.74777 -12.4941 -1.15773 C 44 GLY
171 H171 -7.05 -14.5 1.0679e-07 H 45 GLY
172 U172 -0.750006 -13.5 -9.19241e-07 U 45 GLY
173 U173 -0.250005 -12 -9.55266e-07 U 45 GLY
174 U174 -0.250002 -15 -1.41564e-06 U 45 GLY
175 U175 0.249993 -9 -1.35258e-06 U 45 GLY
176 U176 -1.25 -15 -1.25336e-06 U 45 GLY
177 U177 -1.25001 -12 -7.29193e-07 U 45 GLY
178 U178 -3.75 -14.5 -1.14999 U 45 GLY
179 U179 -3.75 -11.5 -1.15 U 45 GLY
180 O180 -6.73278 -6.55017 0.312807 O 46 ASP
181 O181 -5.23679 -6.50987 0.210947 O 46 ASP
182 U182 -3.74079 -6.46958 0.109087 U 46 ASP
183 C183 -3.77623 -5.65754 -1.354 C 47 ASN
184 C184 -3.74719 -4.98964 -0.011213 C 47 ASN
185 C185 -3.71814 -4.32174 1.33157 C 47 ASN
186 U186 -4.74692 -4.99234 0.0117562 U 47 ASN
187 C187 -3.7234 -8.76602 -1.26748 C 48 ASP
188 C188 -3.74921 -8.00064 0.0222871 C 48 ASP
189 C189 -3.77501 -7.23526 1.31206 C 48 ASP
190 U190 -4.74892 -7.99524 -0.000922577 U 48 ASP
191 U191 -3.76641 -7.49039 0.882138 U 48 ASP
192 O192 -10.8617 -5.51099 -0.0540223 O 49 ARG
193 O193 -9.86544 -5.52296 0.0312833 O 49 ARG
194 O194 -8.86915 -5.53493 0.116589 O 49 ARG
195 O195 -7.87287 -5.5469 0.201894 O 49 ARG
196 O196 -6.87659 -5.55887 0.2872 O 49 ARG
197 C197 -11.038 -6.49234 0.0353388 C 50 ASN
198 C198 -10.039 -6.51454 -0.0038805 C 50 ASN
199 U199 -10.0604 -7.51408 0.017288 U 50 ASN
200 U200 -9.04002 -6.53673 -0.0430997 U 50 ASN
201 C201 -3.82925 -7.23163 -1.2757 C 51 ARG
202 C202 -3.74771 -6.50965 0.0365914 C 51 ARG
203 C203 -3.66616 -5.78768 1.34888 C 51 ARG
204 O204 -3.24927 -6.49758 -0.00102395 O 51 ARG
205 C205 -6.74685 -6.49348 -1.14579 C 52 GLY
206 C206 -6.74332 -5.49374 -1.16846 C 52 GLY
207 H207 -10.05 -7.5 1.0679e-07 H 53 GLY
208 U208 -3.75001 -6.5 -9.19241e-07 U 53 GLY
209 U209 -3.25001 -5 -9.55266e-07 U 53 GLY
210 U210 -3.25 -7.99999 -1.41564e-06 U 53 GLY
211 U211 -2.75001 -2 -1.35258e-06 U 53 GLY
212 U212 -4.25 -7.99999 -1.25336e-06 U 53 GLY
213 U213 -4.25001 -5 -7.29193e-07 U 53 GLY
214 U214 -6.75 -7.5 -1.14999 U 53 GLY
215 U215 -6.75 -4.5 -1.15 U 53 GLY
216 C216 2.48582 14.0083 5.49745 C 54 ALA
217 C217 2.49037 14.3092 6.18441 C 54 ALA
218 C218 2.49491 14.6102 6.87138 C 54 ALA
219 C219 1.48644 13.979 5.51691 C 54 ALA
220 C220 1.49553 14.5808 6.89083 C 54 ALA
221 U221 1.47735 13.3771 4.14298 U 54 ALA
222 C222 4.99793 13.9859 5.5098 C 55 ARG
223 C223 5.00148 14.3089 6.18667 C 55 ARG
224 C224 5.00504 14.632 6.86354 C 55 ARG
225 C225 5.99791 13.985 5.50499 C 55 ARG
226 C226 6.00503 14.631 6.85873 C 55 ARG
227 C227 3.74914 15.3087 8.00053 C 56 ASN
228 C228 3.71744 15.5377 7.28708 C 56 ASN
229 C229 3.68574 15.7668 6.57362 C 56 ASN
230 C230 2.99843 16.0493 6.69486 C 56 ASN
231 C231 4.28935 16.2025 6.68668 C 56 ASN
232 C232 2.32214 16.3235 6.81295 C 56 ASN
233 C233 4.88413 16.6275 6.79672 C 56 ASN
234 C234 3.81253 14.8505 9.42745 C 56 ASN
235 H235 3.20631 15.0054 6.49591 H 57 ASP
236 H236 4.32515 15.1214 6.52193 H 58 ASP
237 H237 4.7526 15.3013 7.99503 H 59 GLY
238 C238 3.7633 18.8152 6.5886 C 60 THY
239 C239 3.75281 18.3293 8.0077 C 60 THY
240 C240 3.74233 17.8435 9.4268 C 60 THY
241 U241 2.75337 18.3007 7.99049 U 60 THY
242 O242 1.75249 17.306 4.6005 O 61 ALA
243 O243 2.48583 17.3102 3.92065 O 61 ALA
244 U244 1.75936 16.306 4.60171 U 61 ALA
245 U245 1.07267 17.3004 3.86715 U 61 ALA
246 O246 5.76921 17.3024 4.59433 O 62 ALA
247 O247 6.39211 17.2805 3.81234 O 62 ALA
248 U248 5.74215 16.3028 4.60078 U 62 ALA
249 U249 4.98737 17.3196 3.97108 U 62 ALA
250 O250 2.4222 18.052 4.0054 O 63 ALA
251 O251 3.42142 18.0469 3.96626 O 63 ALA
252 O252 4.42064 18.0418 3.92712 O 63 ALA
253 O253 5.41987 18.0366 3.88798 O 63 ALA
254 O254 6.41909 18.0315 3.84884 O 63 ALA
255 O255 2.42705 18.5486 4.06387 O 63 ALA
256 O256 3.42626 18.5435 4.02473 O 63 ALA
257 O257 4.42549 18.5383 3.98559 O 63 ALA
258 O258 5.42471 18.5332 3.94645 O 63 ALA
259 O259 6.42393 18.5281 3.90731 O 63 ALA
260 O260 2.44376 18.2417 4.53082 O 63 ALA
261 O261 3.44298 18.2366 4.49168 O 63 ALA
262 O262 4.4422 18.2314 4.45254 O 63 ALA
263 O263 5.44142 18.2263 4.4134 O 63 ALA
264 O264 6.44064 18.2212 4.37426 O 63 ALA
265 U265 2.42462 18.3003 4.03463 U 63 ALA
266 O266 3.74063 17.2663 8.0155 O 64 GLY
267 H267 0.5 14 5.5 H 65 GLY
268 H268 7 14 5.5 H 66 GLY
269 H269 1.75 16.3 4.6 H 67 GLY
270 H270 5.75 16.3 4.6 H 68 GLY
271 H271 4.75 18.3 8 H 69 GLY
272 O272 7.4122 10.2845 6.0434 O 70 ASP
273 O273 8.84722 10.2483 6.4786 O 70 ASP
274 U274 5.97718 10.3207 5.6082 U 70 ASP
275 C275 6.01313 10.8739 4.14163 C 71 ASN
276 C276 6.01255 11.5026 5.5035 C 71 ASN
277 C277 6.01196 12.1314 6.86538 C 71 ASN
278 U278 5.01255 11.5005 5.50407 U 71 ASN
279 C279 5.98601 7.82487 4.15356 C 72 ASP
280 C280 6.00317 8.48931 5.49826 C 72 ASP
281 C281 6.02032 9.15374 6.84296 C 72 ASP
282 U282 5.00351 8.51559 5.49803 U 72 ASP
283 U283 6.0146 8.93226 6.39473 U 72 ASP
284 O284 8.89933 11.2406 6.43311 O 73 ARG
285 O285 9.76816 11.1778 5.94199 O 73 ARG
286 O286 10.637 11.1151 5.45087 O 73 ARG
287 O287 11.5058 11.0523 4.95975 O 73 ARG
288 O288 12.3746 10.9896 4.46863 O 73 ARG
289 C289 12.2982 10.0019 5.48461 C 74 ASN
290 C290 12.327 9.9928 4.48507 C 74 ASN
291 U291 12.3017 9.00194 5.49381 U 74 ASN
292 U292 13.2978 10.0057 5.51338 U 74 ASN
293 C293 6.44307 9.4919 4.31346 C 75 ARG
294 C294 5.98859 10.0439 5.63206 C 75 ARG
295 C295 5.5341 10.596 6.95065 C 75 ARG
296 O296 5.51219 9.99516 5.48828 O 75 ARG
297 C297 9.00278 9.99803 4.34152 C 76 GLY
298 C298 8.99729 10.9979 4.35644 C 76 GLY
299 H299 12.3 9 5.5 H 77 GLY
300 U300 6.00001 10 5.5 U 77 GLY
301 U301 5.50001 11.5 5.5 U 77 GLY
302 U302 5.5 8.50001 5.5 U 77 GLY
303 U303 5.00001 14.5 5.5 U 77 GLY
304 U304 6.5 8.50001 5.5 U 77 GLY
305 U305 6.50001 11.5 5.5 U 77 GLY
306 U306 9 9 4.35001 U 77 GLY
307 U307 9 12 4.35 U 77 GLY
308 O308 -0.947519 9.65059 7.44177 O 78 ASP
309 O309 0.363194 9.77466 6.6344 O 78 ASP
310 U310 1.67328 9.8228 5.99024 U 78 ASP
311 C311 1.48874 12.0747 6.88316 C 79 ASN
312 C312 1.53974 10.3635 2.72156 C 79 ASN
313 C313 1.52274 10.9339 4.10876 C 79 ASN
314 C314 1.50574 11.5043 5.49596 C 79 ASN
315 C315 1.65647 7.49144 2.69247 C 80 ASP
316 C316 1.57421 7.99426 4.10328 C 80 ASP
317 C317 1.49195 8.49708 5.5141 C 80 ASP
318 C318 1.40969 8.9999 6.92492 C 80 ASP
319 O319 -4.60462 11.0208 6.509 O 81 ARG
320 O320 -3.65311 10.9765 6.74112 O 81 ARG
321 O321 -2.68461 10.8475 6.9615 O 81 ARG
322 O322 -1.73611 10.8145 7.20982 O 81 ARG
323 O323 -0.762996 10.7297 7.42489 O 81 ARG
324 C324 -4.77685 10.0472 6.47408 C 82 ASN
325 C325 -4.80128 10.0021 5.4944 C 82 ASN
326 U326 -4.78196 9.91449 4.49803 U 82 ASN
327 C327 0.991447 9.49711 4.47714 C 83 ARG
328 C328 1.5658 9.97683 5.77791 C 83 ARG
329 C329 2.16773 10.4525 7.04372 C 83 ARG
330 O330 1.99536 9.99608 5.51964 O 83 ARG
331 C331 -1.42813 10.0123 4.36907 C 84 GLY
332 C332 -1.46209 10.9952 4.36886 C 84 GLY
333 C333 1.52017 9.96966 9.99937 C 85 ALA
334 C334 1.70151 10.0335 11.0331 C 85 ALA
335 C335 1.57552 11.4997 11.0649 C 85 ALA
336 C336 2.01084 8.60656 9.18806 C 85 ALA
337 C337 1.90175 10.0765 9.2499 C 85 ALA
338 U338 1.54585 10.0369 9.03708 U 85 ALA
339 U339 1.5097 9.05162 9.99275 U 85 ALA
340 H340 1.42265 11.7899 8.93223 H 86 ASP
341 H341 1.33691 12 10.0533 H 87 ASP
342 H342 1.38937 11.8461 7.73719 H 88 ASP
343 H343 1.4862 8.90449 8.63265 H 89 ASP
344 H344 2.56325 9.04486 8.54587 H 90 ASP
345 H345 1.90749 9.10231 7.95863 H 91 ASP
346 H346 -4.80355 9.01214 5.50214 H 92 GLY
347 H347 1.49856 9.99881 5.50151 H 92 GLY
348 H348 2.00172 11.4977 5.50397 H 92 GLY
349 H349 1.99538 8.49776 5.49867 H 92 GLY
350 H350 1.49856 9.99881 5.50151 H 92 GLY
351 H351 0.995383 8.49987 5.49905 H 92 GLY
352 H352 1.00173 11.4999 5.50435 H 92 GLY
353 H353 -1.50398 9.00719 4.35089 H 92 GLY
354 H354 -1.49764 12.0072 4.35619 H 92 GLY
355 H355 1.4992 9.49085 10.0006 H 92 GLY
356 O356 -2.01067 10.4919 0.499048 O 93 ALA
357 O357 -1.07129 10.5382 0.159308 O 93 ALA
358 O358 -1.9746 9.4932 0.462576 O 93 ALA
359 O359 -1.07835 9.51023 0.882626 O 93 ALA
360 U360 -1.96595 10.53 -0.499457 U 93 ALA
361 O361 2.01293 10.4962 0.506199 O 94 ALA
362 O362 2.94503 10.5428 0.147001 O 94 ALA
363 O363 2.05413 9.49732 0.483629 O 94 ALA
364 O364 2.9585 9.52555 0.885282 O 94 ALA
365 U365 2.03742 10.5198 -0.493454 U 94 ALA
366 O366 -1.06262 11.2744 0.233493 O 95 ALA
367 O367 -0.0627023 11.2754 0.22116 O 95 ALA
368 O368 0.937221 11.2764 0.208828 O 95 ALA
369 O369 1.93715 11.2774 0.196496 O 95 ALA
370 O370 2.93708 11.2783 0.184163 O 95 ALA
371 O371 -1.06203 11.7666 0.321168 O 95 ALA
372 O372 -0.062109 11.7676 0.308835 O 95 ALA
373 O373 0.937815 11.7686 0.296503 O 95 ALA
374 O374 1.93774 11.7696 0.284171 O 95 ALA
375 O375 2.93767 11.7706 0.271838 O 95 ALA
376 O376 -1.05617 11.4328 0.769546 O 95 ALA
377 O377 -0.0562473 11.4338 0.757213 O 95 ALA
378 O378 0.943675 11.4348 0.74488 O 95 ALA
379 O379 1.9436 11.4358 0.732548 O 95 ALA
380 O380 2.94353 11.4368 0.720215 O 95 ALA
381 U381 -1.06232 11.5205 0.277331 U 95 ALA
382 O382 -1.04338 8.27257 0.767719 O 96 ALA
383 O383 -0.0433982 8.27631 0.769848 O 96 ALA
384 O384 0.956594 8.28004 0.771977 O 96 ALA
385 O385 1.95659 8.28378 0.774106 O 96 ALA
386 O386 2.95659 8.28751 0.776234 O 96 ALA
387 O387 -1.04535 8.77019 0.816386 O 96 ALA
388 O388 -0.0453609 8.77393 0.818514 O 96 ALA
389 O389 0.954632 8.77767 0.820643 O 96 ALA
390 O390 1.95463 8.7814 0.822772 O 96 ALA
391 O391 2.95462 8.78514 0.8249 O 96 ALA
392 O392 -1.04525 8.47271 1.28968 O 96 ALA
393 O393 -0.0452563 8.47645 1.29181 O 96 ALA
394 O394 0.954735 8.48018 1.29394 O 96 ALA
395 O395 1.95473 8.48392 1.29606 O 96 ALA
396 O396 2.95472 8.48766 1.29819 O 96 ALA
397 U397 -1.04437 8.52138 0.792053 U 96 ALA
398 H398 -1.99539 10.9984 0.494351 H 97 GLY
399 H399 2.00461 10.9966 0.499024 H 97 GLY
400 H400 2.00374 8.99666 0.483696 H 97 GLY
401 H401 -1.99626 8.99845 0.479023 H 97 GLY
402 C402 4.74 27.9959 10.9956 C 98 ALA
403 C403 4.74462 28.2975 11.6823 C 98 ALA
404 C404 4.74924 28.599 12.369 C 98 ALA
405 C405 3.74002 27.9978 11.0015 C 98 ALA
406 C406 3.74926 28.6009 12.3749 C 98 ALA
407 U407 3.73079 27.3948 9.62808 U 98 ALA
408 C408 7.25478 27.9961 10.9982 C 99 ARG
409 C409 7.24885 28.3687 11.6491 C 99 ARG
410 C410 7.24293 28.7414 12.2999 C 99 ARG
411 C411 8.25471 28.0078 11.0006 C 99 ARG
412 C412 8.24286 28.753 12.3024 C 99 ARG
413 C413 6.00829 29.3166 13.4999 C 100 ASN
414 C414 6.02176 29.5437 12.7852 C 100 ASN
415 C415 6.03523 29.7709 12.0706 C 100 ASN
416 C416 5.42175 30.1901 12.1923 C 100 ASN
417 C417 6.71637 30.0727 12.1794 C 100 ASN
418 C418 4.81733 30.5989 12.3108 C 100 ASN
419 C419 7.38667 30.366 12.2852 C 100 ASN
420 C420 5.98135 28.8623 14.9292 C 100 ASN
421 H421 5.44555 29.0692 12.0887 H 101 ASP
422 H422 6.42684 28.9772 11.9739 H 102 ASP
423 H423 7.01482 29.2954 13.5106 H 103 GLY
424 C424 5.96246 32.7531 12.0602 C 104 THY
425 C425 5.99578 32.3083 13.4923 C 104 THY
426 C426 6.02909 31.8636 14.9245 C 104 THY
427 U427 4.99606 32.2932 13.5109 U 104 THY
428 O428 4.014 31.3042 10.112 O 105 ALA
429 O429 3.33894 31.3073 9.37422 O 105 ALA
430 U430 4.01412 30.3042 10.1076 U 105 ALA
431 U431 3.27623 31.3012 10.787 U 105 ALA
432 O432 8.00027 31.3117 10.1051 O 106 ALA
433 O433 7.2848 31.3019 9.40655 O 106 ALA
434 U434 8.00576 30.3117 10.1136 U 106 ALA
435 U435 7.30165 31.3139 10.8206 U 106 ALA
436 O436 3.35114 32.0479 9.36038 O 107 ALA
437 O437 4.35106 32.048 9.34833 O 107 ALA
438 O438 5.35099 32.0481 9.33628 O 107 ALA
439 O439 6.35092 32.0481 9.32423 O 107 ALA
440 O440 7.35085 32.0482 9.31218 O 107 ALA
441 O441 3.35066 32.5466 9.32336 O 107 ALA
442 O442 4.35058 32.5466 9.31131 O 107 ALA
443 O443 5.35051 32.5467 9.29926 O 107 ALA
444 O444 6.35044 32.5468 9.28721 O 107 ALA
445 O445 7.35037 32.5468 9.27516 O 107 ALA
446 O446 3.3569 32.3343 9.84046 O 107 ALA
447 O447 4.35683 32.3343 9.82841 O 107 ALA
448 O448 5.35676 32.3344 9.81636 O 107 ALA
449 O449 6.35669 32.3345 9.80431 O 107 ALA
450 O450 7.35661 32.3346 9.79226 O 107 ALA
451 U451 3.3509 32.2973 9.34187 U 107 ALA
452 O452 6.00123 31.2782 13.4969 O 108 GLY
453 H453 2.75 28 11 H 109 GLY
454 H454 9.25 28 11 H 110 GLY
455 H455 4 30.3 10.1 H 111 GLY
456 H456 8 30.3 10.1 H 112 GLY
457 H457 7 32.3 13.5 H 113 GLY
458 O458 9.06613 24.2974 12.4128 O 114 ASP
459 O459 10.1695 24.3323 13.4283 O 114 ASP
460 U460 7.96277 24.2624 11.3972 U 114 ASP
461 C461 8.25862 24.7533 9.70522 C 115 ASN
462 C462 8.25488 25.5041 11.0038 C 115 ASN
463 C463 8.25113 26.2548 12.3024 C 115 ASN
464 U464 7.25494 25.4935 11.0071 U 115 ASN
465 C465 8.27508 21.9021 9.64669 C 116 ASP
466 C466 8.24554 22.5002 11.022 C 116 ASP
467 C467 8.216 23.0982 12.3973 C 116 ASP
468 U468 7.24575 22.4977 11.0016 U 116 ASP
469 U469 8.22585 22.8989 11.9389 U 116 ASP
470 O470 10.2861 25.3048 13.2315 O 117 ARG
471 O471 11.1033 25.2293 12.6601 O 117 ARG
472 O472 11.9204 25.1537 12.0886 O 117 ARG
473 O473 12.7376 25.0782 11.5172 O 117 ARG
474 O474 13.5548 25.0027 10.9458 O 117 ARG
475 C475 14.5501 24.0054 10.993 C 118 ASN
476 C476 13.5512 24.0145 11.0398 C 118 ASN
477 U477 14.542 23.0057 11.0152 U 118 ASN
478 U478 14.5031 23.9836 9.99431 U 118 ASN
479 C479 9.17715 23.7878 10.3558 C 119 ARG
480 C480 8.09022 24.1699 11.3164 C 119 ARG
481 C481 7.00328 24.5519 12.2769 C 119 ARG
482 O482 7.74626 24.0084 10.9913 O 119 ARG
483 C483 11.2583 24.0081 9.84788 C 120 GLY
484 C484 11.2561 25.0079 9.8699 C 120 GLY
485 H485 14.55 23 11 H 121 GLY
486 U486 8.25001 24 11 U 121 GLY
487 U487 7.75001 25.5 11 U 121 GLY
488 U488 7.75 22.5 11 U 121 GLY
489 U489 7.25001 28.5 11 U 121 GLY
490 U490 8.75 22.5 11 U 121 GLY
491 U491 8.75001 25.5 11 U 121 GLY
492 U492 11.25 23 9.85001 U 121 GLY
493 U493 11.25 26 9.85 U 121 GLY
494 O494 1.73425 24.0107 13.5284 O 122 ASP
495 O495 2.83578 23.996 12.446 O 122 ASP
496 U496 3.76428 23.9595 11.319 U 122 ASP
497 C497 3.7043 26.0967 12.3714 C 123 ASN
498 C498 3.83742 24.3665 8.21941 C 123 ASN
499 C499 3.79305 24.9432 9.60339 C 123 ASN
500 C500 3.74867 25.5199 10.9874 C 123 ASN
501 C501 3.80611 21.5922 8.13571 C 124 ASP
502 C502 3.77877 22.0451 9.56542 C 124 ASP
503 C503 3.75144 22.4981 10.9951 C 124 ASP
504 C504 3.72411 22.9511 12.4248 C 124 ASP
505 O505 -1.38509 25.0494 11.0314 O 125 ARG
506 O506 -0.597739 25.0871 11.6144 O 125 ARG
507 O507 0.17898 25.0531 12.2459 O 125 ARG
508 O508 0.963377 25.1103 12.8323 O 125 ARG
509 O509 1.76072 25.1048 13.4361 O 125 ARG
510 C510 -1.57377 24.055 11.0382 C 126 ASN
511 C511 -2.55286 24.0058 11.0012 C 126 ASN
512 U512 -3.55227 24.0161 10.9581 U 126 ASN
513 C513 3.01783 23.4783 10.2405 C 127 ARG
514 C514 3.87714 24.0172 11.3465 C 127 ARG
515 C515 4.75543 24.5491 12.4126 C 127 ARG
516 O516 4.2383 24.0069 10.9985 O 127 ARG
517 C517 0.754832 24.007 9.90489 C 128 GLY
518 C518 0.760481 24.9903 9.88504 C 128 GLY
519 C519 3.7468 23.9774 15.5006 C 129 ALA
520 C520 4.78618 24.0539 15.3614 C 129 ALA
521 C521 4.79629 25.5195 15.4979 C 129 ALA
522 C522 2.97137 22.6087 14.969 C 129 ALA
523 C523 3.01209 24.0785 15.0899 C 129 ALA
524 U524 2.78561 24.0341 15.4366 U 129 ALA
525 U525 3.75018 23.0593 15.5049 U 129 ALA
526 H526 4.57264 26.5988 13.8898 H 130 ASP
527 H527 5.08881 25.9877 14.5354 H 131 ASP
528 H528 4.20793 25.7896 13.0678 H 132 ASP
529 H529 3.33967 22.1738 14.2101 H 133 ASP
530 H530 3.65282 23.0236 14.5206 H 134 ASP
531 H531 3.60908 22.8112 13.5701 H 135 ASP
532 H532 -2.55205 23.0051 10.9989 H 136 GLY
533 H533 3.74836 24.0026 11.0016 H 136 GLY
534 H534 4.24896 25.5024 11.0033 H 136 GLY
535 H535 4.24775 22.5024 11.0001 H 136 GLY
536 H536 3.74836 24.0026 11.0016 H 136 GLY
537 H537 3.24775 22.5028 10.9998 H 136 GLY
538 H538 3.24897 25.5028 11.0031 H 136 GLY
539 H539 0.74825 23.005 9.84974 H 136 GLY
540 H540 0.749462 26.005 9.85297 H 136 GLY
541 H541 3.74703 23.4977 15.501 H 136 GLY
542 O542 0.236712 24.5015 6.02698 O 137 ALA
543 O543 -0.166312 24.5466 5.1129 O 137 ALA
544 O544 0.221483 23.5025 5.98439 O 137 ALA
545 O545 0.579909 23.5363 5.06223 O 137 ALA
546 U546 -0.763162 24.5157 6.04953 U 137 ALA
547 O547 4.25857 24.5089 6.01037 O 138 ALA
548 O548 3.84002 24.5401 5.10271 O 138 ALA
549 O549 4.22097 23.5098 5.9934 O 138 ALA
550 O550 4.56318 23.5127 5.06448 O 138 ALA
551 U551 3.25982 24.5458 6.05023 U 138 ALA
552 O552 -0.152916 25.2814 5.20573 O 139 ALA
553 O553 0.847054 25.2764 5.20072 O 139 ALA
554 O554 1.84703 25.2715 5.19571 O 139 ALA
555 O555 2.84701 25.2665 5.1907 O 139 ALA
556 O556 3.84699 25.2616 5.18569 O 139 ALA
557 O557 -0.150186 25.7784 5.26033 O 139 ALA
558 O558 0.849784 25.7734 5.25532 O 139 ALA
559 O559 1.84976 25.7685 5.25031 O 139 ALA
560 O560 2.84974 25.7635 5.24529 O 139 ALA
561 O561 3.84972 25.7586 5.24028 O 139 ALA
562 O562 -0.149332 25.4752 5.73003 O 139 ALA
563 O563 0.850641 25.4703 5.72502 O 139 ALA
564 O564 1.85062 25.4654 5.72001 O 139 ALA
565 O565 2.85059 25.4604 5.715 O 139 ALA
566 O566 3.85057 25.4555 5.70999 O 139 ALA
567 U567 -0.151551 25.5299 5.23303 U 139 ALA
568 O568 0.549835 22.2887 5.05411 O 140 ALA
569 O569 1.54981 22.2829 5.05385 O 140 ALA
570 O570 2.5498 22.2772 5.0536 O 140 ALA
571 O571 3.54979 22.2714 5.05334 O 140 ALA
572 O572 4.54978 22.2657 5.05309 O 140 ALA
573 O573 0.552708 22.7887 5.05379 O 140 ALA
574 O574 1.55269 22.7829 5.05353 O 140 ALA
575 O575 2.55267 22.7772 5.05328 O 140 ALA
576 O576 3.55266 22.7714 5.05302 O 140 ALA
577 O577 4.55265 22.7657 5.05277 O 140 ALA
578 O578 0.551399 22.539 5.55395 O 140 ALA
579 O579 1.55138 22.5333 5.55369 O 140 ALA
580 O580 2.55137 22.5275 5.55344 O 140 ALA
581 O581 3.55135 22.5218 5.55318 O 140 ALA
582 O582 4.55134 22.516 5.55293 O 140 ALA
583 U583 0.551271 22.5387 5.05395 U 140 ALA
584 H584 0.249852 24.9997 5.99815 H 141 GLY
585 H585 4.24985 25.0023 6.00177 H 141 GLY
586 H586 4.25116 23.0023 6.00075 H 141 GLY
587 H587 0.251164 22.9997 5.99713 H 141 GLY
588 C588 7.01034 42.0175 16.4848 C 142 ALA
589 C589 7.02099 42.3443 17.1598 C 142 ALA
590 C590 7.03164 42.671 17.8348 C 142 ALA
591 C591 6.01072 42.0022 16.508 C 142 ALA
592 C592 6.03203 42.6556 17.858 C 142 ALA
593 U593 5.98942 41.3488 15.158 U 142 ALA
594 C594 9.5058 41.9974 16.5095 C 143 ARG
595 C595 9.50825 42.4189 17.1299 C 143 ARG
596 C596 9.5107 42.8403 17.7503 C 143 ARG
597 C597 10.5056 42.0101 16.497 C 143 ARG
598 C598 10.5105 42.853 17.7377 C 143 ARG
599 C599 8.24455 43.3234 19.0063 C 144 ASN
600 C600 8.19423 43.6224 18.3203 C 144 ASN
601 C601 8.14392 43.9215 17.6344 C 144 ASN
602 C602 7.47058 44.2094 17.8093 C 144 ASN
603 C603 8.76451 44.3271 17.7657 C 144 ASN
604 C604 6.80789 44.4892 17.9798 C 144 ASN
605 C605 9.37584 44.7227 17.8933 C 144 ASN
606 C606 8.34519 42.7254 20.3782 C 144 ASN
607 H607 7.64546 43.2063 17.4517 H 145 ASP
608 H608 8.76091 43.2653 17.4867 H 146 ASP
609 H609 9.24524 43.3 18.9921 H 147 GLY
610 C610 8.25226 46.9296 17.6269 C 148 THY
611 C611 8.25342 46.3184 18.9967 C 148 THY
612 C612 8.25459 45.7073 20.3666 C 148 THY
613 U613 7.25352 46.3056 18.9919 U 148 THY
614 O614 6.25199 45.3029 15.5953 O 149 ALA
615 O615 5.5408 45.2947 16.2982 O 149 ALA
616 U616 6.25497 44.3029 15.5866 U 149 ALA
617 U617 6.95499 45.2988 16.3064 U 149 ALA
618 O618 10.2365 45.2877 15.6032 O 150 ALA
619 O619 9.47319 45.269 16.249 O 150 ALA
620 U620 10.2449 44.288 15.5843 U 150 ALA
621 U621 10.8825 45.2787 16.3665 U 150 ALA
622 O622 5.50681 46.0463 16.3266 O 151 ALA
623 O623 6.50578 46.0386 16.2819 O 151 ALA
624 O624 7.50475 46.0309 16.2373 O 151 ALA
625 O625 8.50373 46.0232 16.1927 O 151 ALA
626 O626 9.5027 46.0156 16.148 O 151 ALA
627 O627 5.51061 46.5462 16.3258 O 151 ALA
628 O628 6.50958 46.5386 16.2811 O 151 ALA
629 O629 7.50856 46.5309 16.2365 O 151 ALA
630 O630 8.50753 46.5232 16.1918 O 151 ALA
631 O631 9.50651 46.5156 16.1472 O 151 ALA
632 O632 5.53103 46.2969 16.8257 O 151 ALA
633 O633 6.53 46.2892 16.781 O 151 ALA
634 O634 7.52898 46.2816 16.7364 O 151 ALA
635 O635 8.52795 46.2739 16.6918 O 151 ALA
636 O636 9.52693 46.2662 16.6471 O 151 ALA
637 U637 5.50871 46.2963 16.3262 U 151 ALA
638 O638 8.25799 45.2657 19.0015 O 152 GLY
639 H639 5 42 16.5 H 153 GLY
640 H640 11.5 42 16.5 H 154 GLY
641 H641 6.25 44.3 15.6 H 155 GLY
642 H642 10.25 44.3 15.6 H 156 GLY
643 H643 9.25 46.3 19 H 157 GLY
644 O644 11.7442 38.3029 17.4403 O 158 ASP
645 O645 12.7732 38.3146 18.5316 O 158 ASP
646 U646 10.7151 38.2911 16.349 U 158 ASP
647 C647 10.485 38.6692 15.2445 C 159 ASN
648 C648 10.5018 39.5059 16.4893 C 159 ASN
649 C649 10.5185 40.3426 17.7341 C 159 ASN
650 U650 9.50183 39.5112 16.4992 U 159 ASN
651 C651 10.4983 35.8609 15.1391 C 160 ASP
652 C652 10.4995 36.4993 16.4964 C 160 ASP
653 C653 10.5007 37.1376 17.8538 C 160 ASP
654 U654 9.49956 36.4908 16.5013 U 160 ASP
655 U655 10.5003 36.9248 17.4014 U 160 ASP
656 O656 12.8898 39.3118 18.4617 O 161 ARG
657 O657 13.8571 39.2308 18.2215 O 161 ARG
658 O658 14.8245 39.1499 17.9814 O 161 ARG
659 O659 15.7918 39.0689 17.7413 O 161 ARG
660 O660 16.7592 38.9879 17.5011 O 161 ARG
661 C661 16.8055 37.9994 16.5082 C 162 ASN
662 C662 16.7481 38.0003 17.5065 C 162 ASN
663 U663 16.7979 36.9994 16.5086 U 162 ASN
664 U664 15.8072 38.0069 16.4508 U 162 ASN
665 C665 11.2201 37.4654 15.6714 C 163 ARG
666 C666 10.4099 38.11 16.7568 C 163 ARG
667 C667 9.59969 38.7546 17.8422 C 163 ARG
668 O668 9.98981 37.9968 16.5104 O 163 ARG
669 C669 13.4987 38.0075 15.3543 C 164 GLY
670 C670 13.5075 39.0075 15.3509 C 164 GLY
671 H671 16.8 37 16.5 H 165 GLY
672 U672 10.5 38 16.5 U 165 GLY
673 U673 10 39.5 16.5 U 165 GLY
674 U674 10 36.5 16.5 U 165 GLY
675 U675 9.50001 42.5 16.5 U 165 GLY
676 U676 11 36.5 16.5 U 165 GLY
677 U677 11 39.5 16.5 U 165 GLY
678 U678 13.5 37 15.35 U 165 GLY
679 U679 13.5 40 15.35 U 165 GLY
680 O680 3.1385 38.3196 17.5908 O 166 ASP
681 O681 4.58953 38.1762 17.0818 O 166 ASP
682 U682 5.97134 37.9132 16.6881 U 166 ASP
683 C683 6.07394 40.1654 17.8631 C 167 ASN
684 C684 5.87282 38.2237 13.8085 C 167 ASN
685 C685 5.93986 38.8709 15.16 C 167 ASN
686 C686 6.0069 39.5182 16.5116 C 167 ASN
687 C687 5.97221 35.572 13.6396 C 168 ASP
688 C688 5.99177 36.0421 15.0639 C 168 ASP
689 C689 6.01132 36.5122 16.4882 C 168 ASP
690 C690 6.03088 36.9823 17.9125 C 168 ASP
691 O691 -0.111641 38.8957 15.268 O 169 ARG
692 O692 0.728478 39.0213 15.7575 O 169 ARG
693 O693 1.54332 39.1326 16.3292 O 169 ARG
694 O694 2.38753 39.2749 16.8083 O 169 ARG
695 O695 3.22637 39.3808 17.3426 O 169 ARG
696 C696 -0.261572 37.9452 15.5178 C 170 ASN
697 C697 -0.287411 37.9995 16.497 C 170 ASN
698 U698 -0.268275 38.0145 17.4971 U 170 ASN
699 C699 5.71173 37.4464 15.3054 C 171 ARG
700 C700 6.02497 38.0421 16.6466 C 171 ARG
701 C701 6.37234 38.628 17.9607 C 171 ARG
702 O702 6.50076 38.0056 16.4921 O 171 ARG
703 C703 3.01644 38.0171 15.3545 C 172 GLY
704 C704 3.04749 39 15.3419 C 172 GLY
705 C705 5.9952 37.9758 21.0046 C 173 ALA
706 C706 5.8203 38.0448 19.9701 C 173 ALA
707 C707 5.9282 39.5126 19.9494 C 173 ALA
708 C708 5.51593 36.601 21.8028 C 173 ALA
709 C709 5.6071 38.0726 21.7521 C 173 ALA
710 U710 5.96197 38.0359 21.9671 U 173 ALA
711 U711 6.01709 37.058 21.0048 U 173 ALA
712 H712 5.11462 39.6933 18.0664 H 174 ASP
713 H713 5.62566 39.5124 18.9315 H 175 ASP
714 H714 5.95301 40.1109 18.7469 H 176 ASP
715 H715 6.03896 36.7683 20.0043 H 177 ASP
716 H716 5.74069 36.3113 20.9013 H 178 ASP
717 H717 5.84863 36.634 19.0574 H 179 ASP
718 H718 -0.292927 36.9964 16.4919 H 180 GLY
719 H719 6.0058 38.0044 16.5007 H 180 GLY
720 H720 6.50389 39.505 16.5044 H 180 GLY
721 H721 6.5077 36.505 16.498 H 180 GLY
722 H722 6.0058 38.0044 16.5007 H 180 GLY
723 H723 5.5077 36.5037 16.497 H 180 GLY
724 H724 5.5039 39.5037 16.5033 H 180 GLY
725 H725 3.00828 37.003 15.3454 H 180 GLY
726 H726 3.00447 40.003 15.3518 H 180 GLY
727 H727 6.00174 37.4948 20.9996 H 180 GLY
728 O728 2.50497 38.5019 11.4878 O 181 ALA
729 O729 1.57715 38.5151 11.8605 O 181 ALA
730 O730 2.4903 37.502 11.4868 O 181 ALA
731 O731 1.57992 37.5157 11.0982 O 181 ALA
732 U732 2.49401 38.501 12.4879 U 181 ALA
733 O733 6.51004 38.5073 11.4943 O 182 ALA
734 O734 5.60126 38.5283 11.9111 O 182 ALA
735 O735 6.49907 37.5077 11.5207 O 182 ALA
736 O736 5.57094 37.5088 11.1764 O 182 ALA
737 U737 6.5474 38.5333 12.4935 U 182 ALA
738 O738 1.63256 39.2455 11.7827 O 183 ALA
739 O739 2.63192 39.2542 11.817 O 183 ALA
740 O740 3.6313 39.263 11.8513 O 183 ALA
741 O741 4.63068 39.2717 11.8855 O 183 ALA
742 O742 5.63005 39.2805 11.9198 O 183 ALA
743 O743 1.62814 39.7454 11.7837 O 183 ALA
744 O744 2.62751 39.7542 11.818 O 183 ALA
745 O745 3.62688 39.763 11.8523 O 183 ALA
746 O746 4.62626 39.7717 11.8865 O 183 ALA
747 O747 5.62564 39.7805 11.9208 O 183 ALA
748 O748 1.61322 39.4943 12.2829 O 183 ALA
749 O749 2.61259 39.5031 12.3172 O 183 ALA
750 O750 3.61196 39.5118 12.3515 O 183 ALA
751 O751 4.61134 39.5206 12.3857 O 183 ALA
752 O752 5.61071 39.5293 12.42 O 183 ALA
753 U753 1.63035 39.4955 11.7832 U 183 ALA
754 O754 1.58525 36.2706 11.1397 O 184 ALA
755 O755 2.58456 36.2699 11.1769 O 184 ALA
756 O756 3.58387 36.2693 11.2141 O 184 ALA
757 O757 4.58318 36.2686 11.2512 O 184 ALA
758 O758 5.58249 36.2679 11.2884 O 184 ALA
759 O759 1.58705 36.7691 11.1004 O 184 ALA
760 O760 2.58636 36.7684 11.1376 O 184 ALA
761 O761 3.58567 36.7677 11.1748 O 184 ALA
762 O762 4.58498 36.767 11.212 O 184 ALA
763 O763 5.58429 36.7664 11.2492 O 184 ALA
764 O764 1.56764 36.5592 11.6182 O 184 ALA
765 O765 2.56695 36.5585 11.6553 O 184 ALA
766 O766 3.56626 36.5578 11.6925 O 184 ALA
767 O767 4.56557 36.5571 11.7297 O 184 ALA
768 O768 5.56488 36.5565 11.7669 O 184 ALA
769 U769 1.58615 36.5199 11.12 U 184 ALA
770 H770 2.50109 39.0055 11.4993 H 185 GLY
771 H771 6.50108 39.0018 11.5007 H 185 GLY
772 H772 6.49921 37.0018 11.4995 H 185 GLY
773 H773 2.49922 37.0055 11.4981 H 185 GLY
774 O774 5.26046 50.608 19.3054 O 186 ASP
775 O775 6.75127 50.6407 19.1428 O 186 ASP
776 U776 8.24207 50.6734 18.9802 U 186 ASP
777 C777 8.21371 52.7928 17.7153 C 187 ASN
778 C778 8.23415 52.0126 18.9963 C 187 ASN
779 C779 8.25458 51.2324 20.2773 C 187 ASN
780 U780 7.23425 52.0007 19.005 U 187 ASN
781 C781 8.26744 49.6066 17.6309 C 188 ASP
782 C782 8.25824 48.9992 19.0023 C 188 ASP
783 C783 8.24904 48.3917 20.3738 C 188 ASP
784 U784 7.25827 48.9975 18.9949 U 188 ASP
785 O785 1.28872 51.5115 18.3054 O 189 ARG
786 O786 2.25966 51.5336 18.5437 O 189 ARG
787 O787 3.23061 51.5558 18.7819 O 189 ARG
788 O788 4.20156 51.5779 19.0202 O 189 ARG
789 O789 5.17251 51.6 19.2584 O 189 ARG
790 C790 1.23315 50.5098 18.3201 C 190 ASN
791 C791 1.96801 50.4994 18.9983 C 190 ASN
792 U792 1.94442 49.4997 19.0084 U 190 ASN
793 U793 2.70287 50.4889 19.6764 U 190 ASN
794 U794 2.64582 50.4759 18.2634 U 190 ASN
795 C795 8.16515 51.1552 17.6798 C 191 ARG
796 C796 8.24075 50.5125 19.0331 C 191 ARG
797 C797 8.31635 49.8698 20.3863 C 191 ARG
798 O798 8.73956 50.5021 19.0003 O 191 ARG
799 C799 5.24626 50.4999 17.8657 C 192 GLY
800 C800 5.24606 51.4997 17.8436 C 192 GLY
801 H801 1.95 49.5 19 H 193 GLY
802 U802 8.24999 50.5 19 U 193 GLY
803 U803 8.74999 52 19 U 193 GLY
804 U804 8.75 49 19 U 193 GLY
805 U805 9.24999 55 19 U 193 GLY
806 U806 7.75 49 19 U 193 GLY
807 U807 7.74999 52 19 U 193 GLY
808 U808 5.25 49.5 17.85 U 193 GLY
809 U809 5.25 52.5 17.85 U 193 GLY
@<TRIPOS>BOND
1 1 2 2
2 1 4 2
3 2 3 2
4 3 5 2
5 7 8 2
6 7 10 2
7 8 9 2
8 9 11 2
9 12 13 2
10 12 19 2
11 13 14 2
12 14 15 2
13 14 16 2
14 15 17 2
15 16 18 2
16 23 24 2
17 24 25 2
18 27 28 2
19 31 32 2
20 35 40 2
21 35 45 2
22 35 36 2
23 36 41 2
24 36 46 2
25 42 37 2
26 43 38 2
27 43 44 2
28 44 39 2
29 44 49 2
30 46 47 2
31 47 42 2
32 47 48 2
33 48 43 2
34 57 58 2
35 58 59 2
36 58 61 2
37 61 60 2
38 61 62 2
39 65 66 2
40 68 69 2
41 69 70 2
42 72 73 2
43 73 74 2
44 77 78 2
45 78 79 2
46 79 80 2
47 80 81 2
48 82 83 2
49 86 87 2
50 87 89 2
51 87 88 2
52 90 91 2
53 101 102 2
54 104 105 2
55 105 106 2
56 108 109 2
57 109 110 2
58 113 114 2
59 114 115 2
60 115 116 2
61 116 117 2
62 118 119 2
63 121 122 2
64 122 124 2
65 122 123 2
66 125 126 2
67 136 137 2
68 137 138 2
69 137 140 2
70 140 139 2
71 140 141 2
72 144 145 2
73 147 148 2
74 148 149 2
75 151 152 2
76 152 153 2
77 156 157 2
78 157 158 2
79 158 159 2
80 159 160 2
81 161 162 2
82 165 166 2
83 166 168 2
84 166 167 2
85 169 170 2
86 180 181 2
87 183 184 2
88 184 185 2
89 187 188 2
90 188 189 2
91 192 193 2
92 193 194 2
93 194 195 2
94 195 196 2
95 197 198 2
96 201 202 2
97 202 204 2
98 202 203 2
99 205 206 2
100 216 217 2
101 216 219 2
102 217 218 2
103 218 220 2
104 222 223 2
105 222 225 2
106 223 224 2
107 224 226 2
108 227 228 2
109 227 234 2
110 228 229 2
111 229 230 2
112 229 231 2
113 230 232 2
114 231 233 2
115 238 239 2
116 239 240 2
117 242 243 2
118 246 247 2
119 250 255 2
120 250 260 2
121 250 251 2
122 251 256 2
123 251 261 2
124 257 252 2
125 258 253 2
126 258 259 2
127 259 254 2
128 259 264 2
129 261 262 2
130 262 257 2
131 262 263 2
132 263 258 2
133 272 273 2
134 275 276 2
135 276 277 2
136 279 280 2
137 280 281 2
138 284 285 2
139 285 286 2
140 286 287 2
141 287 288 2
142 289 290 2
143 293 294 2
144 294 296 2
145 294 295 2
146 297 298 2
147 308 309 2
148 311 314 2
149 313 312 2
150 314 313 2
151 315 316 2
152 316 317 2
153 317 318 2
154 319 320 2
155 320 321 2
156 321 322 2
157 322 323 2
158 324 325 2
159 327 328 2
160 328 330 2
161 328 329 2
162 331 332 2
163 333 337 2
164 333 334 2
165 334 335 2
166 337 336 2
167 356 357 2
168 356 358 2
169 358 359 2
170 361 362 2
171 361 363 2
172 363 364 2
173 366 371 2
174 366 376 2
175 366 367 2
176 367 372 2
177 367 377 2
178 368 373 2
179 374 369 2
180 374 375 2
181 375 370 2
182 375 380 2
183 377 378 2
184 378 368 2
185 378 379 2
186 379 374 2
187 382 387 2
188 382 392 2
189 382 383 2
190 383 388 2
191 383 393 2
192 384 389 2
193 390 385 2
194 390 391 2
195 391 386 2
196 391 396 2
197 393 394 2
198 394 384 2
199 394 395 2
200 395 390 2
201 402 403 2
202 402 405 2
203 403 404 2
204 404 406 2
205 408 409 2
206 408 411 2
207 409 410 2
208 410 412 2
209 413 414 2
210 413 420 2
211 414 415 2
212 415 416 2
213 415 417 2
214 416 418 2
215 417 419 2
216 424 425 2
217 425 426 2
218 428 429 2
219 432 433 2
220 436 441 2
221 436 446 2
222 436 437 2
223 437 442 2
224 437 447 2
225 443 438 2
226 444 439 2
227 444 445 2
228 445 440 2
229 445 450 2
230 447 448 2
231 448 443 2
232 448 449 2
233 449 444 2
234 458 459 2
235 461 462 2
236 462 463 2
237 465 466 2
238 466 467 2
239 470 471 2
240 471 472 2
241 472 473 2
242 473 474 2
243 475 476 2
244 479 480 2
245 480 482 2
246 480 481 2
247 483 484 2
248 494 495 2
249 497 500 2
250 499 498 2
251 500 499 2
252 501 502 2
253 502 503 2
254 503 504 2
255 505 506 2
256 506 507 2
257 507 508 2
258 508 509 2
259 510 511 2
260 513 514 2
261 514 516 2
262 514 515 2
263 517 518 2
264 519 523 2
265 519 520 2
266 520 521 2
267 523 522 2
268 542 543 2
269 542 544 2
270 544 545 2
271 547 548 2
272 547 549 2
273 549 550 2
274 552 557 2
275 552 562 2
276 552 553 2
277 553 558 2
278 553 563 2
279 554 559 2
280 560 555 2
281 560 561 2
282 561 556 2
283 561 566 2
284 563 564 2
285 564 554 2
286 564 565 2
287 565 560 2
288 568 573 2
289 568 578 2
290 568 569 2
291 569 574 2
292 569 579 2
293 570 575 2
294 576 571 2
295 576 577 2
296 577 572 2
297 577 582 2
298 579 580 2
299 580 570 2
300 580 581 2
301 581 576 2
302 588 589 2
303 588 591 2
304 589 590 2
305 590 592 2
306 594 595 2
307 594 597 2
308 595 596 2
309 596 598 2
310 599 600 2
311 599 606 2
312 600 601 2
313 601 602 2
314 601 603 2
315 602 604 2
316 603 605 2
317 610 611 2
318 611 612 2
319 614 615 2
320 618 619 2
321 622 627 2
322 622 632 2
323 622 623 2
324 623 628 2
325 623 633 2
326 629 624 2
327 630 625 2
328 630 631 2
329 631 626 2
330 631 636 2
331 633 634 2
332 634 629 2
333 634 635 2
334 635 630 2
335 644 645 2
336 647 648 2
337 648 649 2
338 651 652 2
339 652 653 2
340 656 657 2
341 657 658 2
342 658 659 2
343 659 660 2
344 661 662 2
345 665 666 2
346 666 668 2
347 666 667 2
348 669 670 2
349 680 681 2
350 683 686 2
351 685 684 2
352 686 685 2
353 687 688 2
354 688 689 2
355 689 690 2
356 691 692 2
357 692 693 2
358 693 694 2
359 694 695 2
360 696 697 2
361 699 700 2
362 700 702 2
363 700 701 2
364 703 704 2
365 705 709 2
366 705 706 2
367 706 707 2
368 709 708 2
369 728 729 2
370 728 730 2
371 730 731 2
372 733 734 2
373 733 735 2
374 735 736 2
375 738 743 2
376 738 748 2
377 738 739 2
378 739 744 2
379 739 749 2
380 740 745 2
381 746 741 2
382 746 747 2
383 747 742 2
384 747 752 2
385 749 750 2
386 750 740 2
387 750 751 2
388 751 746 2
389 754 759 2
390 754 764 2
391 754 755 2
392 755 760 2
393 755 765 2
394 756 761 2
395 762 757 2
396 762 763 2
397 763 758 2
398 763 768 2
399 765 766 2
400 766 756 2
401 766 767 2
402 767 762 2
403 774 775 2
404 777 778 2
405 778 779 2
406 781 782 2
407 782 783 2
408 785 786 2
409 786 787 2
410 787 788 2
411 788 789 2
412 790 791 2
413 795 796 2
414 796 798 2
415 796 797 2
416 799 800 2
417 1 7 1
418 3 20 1
419 4 52 1
420 5 141 1
421 7 1 1
422 9 21 1
423 10 53 1
424 11 59 1
425 12 22 1
426 14 20 1
427 14 21 1
428 19 25 1
429 20 3 1
430 20 14 1
431 21 9 1
432 21 14 1
433 22 12 1
434 24 51 1
435 24 56 1
436 25 19 1
437 25 316 1
438 27 54 1
439 28 35 1
440 31 55 1
441 32 39 1
442 35 28 1
443 39 32 1
444 51 24 1
445 52 4 1
446 53 10 1
447 54 27 1
448 55 31 1
449 56 24 1
450 58 63 1
451 59 70 1
452 59 11 1
453 61 64 1
454 62 106 1
455 63 58 1
456 64 61 1
457 65 87 1
458 66 77 1
459 69 94 1
460 70 59 1
461 73 95 1
462 77 66 1
463 81 83 1
464 82 92 1
465 83 81 1
466 87 65 1
467 89 94 1
468 89 95 1
469 89 94 1
470 89 95 1
471 90 99 1
472 91 100 1
473 92 82 1
474 94 69 1
475 94 89 1
476 94 89 1
477 95 73 1
478 95 89 1
479 95 89 1
480 97 99 1
481 98 100 1
482 99 97 1
483 99 90 1
484 100 98 1
485 100 91 1
486 101 122 1
487 102 113 1
488 105 129 1
489 106 62 1
490 109 130 1
491 113 102 1
492 117 119 1
493 118 127 1
494 119 117 1
495 122 101 1
496 124 129 1
497 124 130 1
498 124 129 1
499 124 130 1
500 125 134 1
501 126 135 1
502 127 118 1
503 129 105 1
504 129 124 1
505 129 124 1
506 130 109 1
507 130 124 1
508 130 124 1
509 132 134 1
510 133 135 1
511 134 132 1
512 134 125 1
513 135 133 1
514 135 126 1
515 137 142 1
516 138 185 1
517 140 143 1
518 141 149 1
519 141 5 1
520 142 137 1
521 143 140 1
522 144 160 1
523 145 166 1
524 148 173 1
525 149 141 1
526 152 174 1
527 156 161 1
528 160 144 1
529 161 156 1
530 162 171 1
531 166 145 1
532 168 173 1
533 168 174 1
534 168 173 1
535 168 174 1
536 169 178 1
537 170 179 1
538 171 162 1
539 173 148 1
540 173 168 1
541 173 168 1
542 174 152 1
543 174 168 1
544 174 168 1
545 176 178 1
546 177 179 1
547 178 176 1
548 178 169 1
549 179 177 1
550 179 170 1
551 180 196 1
552 181 202 1
553 184 209 1
554 185 138 1
555 188 210 1
556 192 197 1
557 196 180 1
558 197 192 1
559 198 207 1
560 202 181 1
561 204 209 1
562 204 210 1
563 204 209 1
564 204 210 1
565 205 214 1
566 206 215 1
567 207 198 1
568 209 184 1
569 209 204 1
570 209 204 1
571 210 188 1
572 210 204 1
573 210 204 1
574 212 214 1
575 213 215 1
576 214 212 1
577 214 205 1
578 215 213 1
579 215 206 1
580 216 222 1
581 218 235 1
582 219 267 1
583 220 311 1
584 222 216 1
585 224 236 1
586 225 268 1
587 226 277 1
588 227 237 1
589 229 235 1
590 229 236 1
591 234 240 1
592 235 218 1
593 235 229 1
594 236 224 1
595 236 229 1
596 237 227 1
597 239 266 1
598 239 271 1
599 240 234 1
600 240 502 1
601 242 269 1
602 243 250 1
603 246 270 1
604 247 254 1
605 250 243 1
606 254 247 1
607 266 239 1
608 267 219 1
609 268 225 1
610 269 242 1
611 270 246 1
612 271 239 1
613 272 294 1
614 273 284 1
615 276 301 1
616 277 226 1
617 280 302 1
618 284 273 1
619 288 290 1
620 289 299 1
621 290 288 1
622 294 272 1
623 296 301 1
624 296 302 1
625 296 301 1
626 296 302 1
627 297 306 1
628 298 307 1
629 299 289 1
630 301 276 1
631 301 296 1
632 301 296 1
633 302 280 1
634 302 296 1
635 302 296 1
636 304 306 1
637 305 307 1
638 306 304 1
639 306 297 1
640 307 305 1
641 307 298 1
642 308 323 1
643 309 328 1
644 311 342 1
645 311 220 1
646 314 348 1
647 314 352 1
648 316 25 1
649 317 349 1
650 317 351 1
651 318 345 1
652 319 324 1
653 323 308 1
654 324 319 1
655 325 346 1
656 328 309 1
657 330 348 1
658 330 349 1
659 331 353 1
660 332 354 1
661 333 355 1
662 335 341 1
663 336 344 1
664 340 341 1
665 340 342 1
666 341 335 1
667 341 340 1
668 342 340 1
669 342 311 1
670 343 344 1
671 343 345 1
672 344 336 1
673 344 343 1
674 345 343 1
675 345 318 1
676 346 325 1
677 348 314 1
678 348 330 1
679 349 317 1
680 349 330 1
681 351 317 1
682 351 353 1
683 352 314 1
684 352 354 1
685 353 351 1
686 353 331 1
687 354 352 1
688 354 332 1
689 355 333 1
690 356 398 1
691 357 366 1
692 358 401 1
693 359 387 1
694 361 399 1
695 362 370 1
696 363 400 1
697 364 391 1
698 366 357 1
699 370 362 1
700 387 359 1
701 391 364 1
702 398 356 1
703 399 361 1
704 400 363 1
705 401 358 1
706 402 408 1
707 404 421 1
708 405 453 1
709 406 497 1
710 408 402 1
711 410 422 1
712 411 454 1
713 412 463 1
714 413 423 1
715 415 421 1
716 415 422 1
717 420 426 1
718 421 404 1
719 421 415 1
720 422 410 1
721 422 415 1
722 423 413 1
723 425 452 1
724 425 457 1
725 426 420 1
726 426 688 1
727 428 455 1
728 429 436 1
729 432 456 1
730 433 440 1
731 436 429 1
732 440 433 1
733 452 425 1
734 453 405 1
735 454 411 1
736 455 428 1
737 456 432 1
738 457 425 1
739 458 480 1
740 459 470 1
741 462 487 1
742 463 412 1
743 466 488 1
744 470 459 1
745 474 476 1
746 475 485 1
747 476 474 1
748 480 458 1
749 482 487 1
750 482 488 1
751 482 487 1
752 482 488 1
753 483 492 1
754 484 493 1
755 485 475 1
756 487 462 1
757 487 482 1
758 487 482 1
759 488 466 1
760 488 482 1
761 488 482 1
762 490 492 1
763 491 493 1
764 492 490 1
765 492 483 1
766 493 491 1
767 493 484 1
768 494 509 1
769 495 514 1
770 497 528 1
771 497 406 1
772 500 534 1
773 500 538 1
774 502 240 1
775 503 535 1
776 503 537 1
777 504 531 1
778 505 510 1
779 509 494 1
780 510 505 1
781 511 532 1
782 514 495 1
783 516 534 1
784 516 535 1
785 517 539 1
786 518 540 1
787 519 541 1
788 521 527 1
789 522 530 1
790 526 527 1
791 526 528 1
792 527 521 1
793 527 526 1
794 528 526 1
795 528 497 1
796 529 530 1
797 529 531 1
798 530 522 1
799 530 529 1
800 531 529 1
801 531 504 1
802 532 511 1
803 534 500 1
804 534 516 1
805 535 503 1
806 535 516 1
807 537 503 1
808 537 539 1
809 538 500 1
810 538 540 1
811 539 537 1
812 539 517 1
813 540 538 1
814 540 518 1
815 541 519 1
816 542 584 1
817 543 552 1
818 544 587 1
819 545 573 1
820 547 585 1
821 548 556 1
822 549 586 1
823 550 577 1
824 552 543 1
825 556 548 1
826 573 545 1
827 577 550 1
828 584 542 1
829 585 547 1
830 586 549 1
831 587 544 1
832 588 594 1
833 590 607 1
834 591 639 1
835 592 683 1
836 594 588 1
837 596 608 1
838 597 640 1
839 598 649 1
840 599 609 1
841 601 607 1
842 601 608 1
843 606 612 1
844 607 590 1
845 607 601 1
846 608 596 1
847 608 601 1
848 609 599 1
849 611 638 1
850 611 643 1
851 612 606 1
852 612 783 1
853 614 641 1
854 615 622 1
855 618 642 1
856 619 626 1
857 622 615 1
858 626 619 1
859 638 611 1
860 639 591 1
861 640 597 1
862 641 614 1
863 642 618 1
864 643 611 1
865 644 666 1
866 645 656 1
867 648 673 1
868 649 598 1
869 652 674 1
870 656 645 1
871 660 662 1
872 661 671 1
873 662 660 1
874 666 644 1
875 668 673 1
876 668 674 1
877 668 673 1
878 668 674 1
879 669 678 1
880 670 679 1
881 671 661 1
882 673 648 1
883 673 668 1
884 673 668 1
885 674 652 1
886 674 668 1
887 674 668 1
888 676 678 1
889 677 679 1
890 678 676 1
891 678 669 1
892 679 677 1
893 679 670 1
894 680 695 1
895 681 700 1
896 683 714 1
897 683 592 1
898 686 720 1
899 686 724 1
900 688 426 1
901 689 721 1
902 689 723 1
903 690 717 1
904 691 696 1
905 695 680 1
906 696 691 1
907 697 718 1
908 700 681 1
909 702 720 1
910 702 721 1
911 703 725 1
912 704 726 1
913 705 727 1
914 707 713 1
915 708 716 1
916 712 713 1
917 712 714 1
918 713 707 1
919 713 712 1
920 714 712 1
921 714 683 1
922 715 716 1
923 715 717 1
924 716 708 1
925 716 715 1
926 717 715 1
927 717 690 1
928 718 697 1
929 720 686 1
930 720 702 1
931 721 689 1
932 721 702 1
933 723 689 1
934 723 725 1
935 724 686 1
936 724 726 1
937 725 723 1
938 725 703 1
939 726 724 1
940 726 704 1
941 727 705 1
942 728 770 1
943 729 738 1
944 730 773 1
945 731 759 1
946 733 771 1
947 734 742 1
948 735 772 1
949 736 763 1
950 738 729 1
951 742 734 1
952 759 731 1
953 763 736 1
954 770 728 1
955 771 733 1
956 772 735 1
957 773 730 1
958 774 789 1
959 775 796 1
960 778 803 1
961 782 804 1
962 783 612 1
963 785 790 1
964 789 774 1
965 790 785 1
966 791 801 1
967 796 775 1
968 798 803 1
969 798 804 1
970 798 803 1
971 798 804 1
972 799 808 1
973 800 809 1
974 801 791 1
975 803 778 1
976 803 798 1
977 803 798 1
978 804 782 1
979 804 798 1
980 804 798 1
981 806 808 1
982 807 809 1
983 808 806 1
984 808 799 1
985 809 807 1
986 809 800 1
