#
#
#

#
#

@<TRIPOS>MOLECULE
Panda
801 40
SMALL
NO CHARGES


@<TRIPOS>ATOM
1 C1 0.255361 -0.00263304 -0.0140703 C 0 GLU
2 C2 0.26153 0.365232 0.639487 C 0 GLU
3 C3 0.267699 0.733097 1.29304 C 0 GLU
4 C4 -0.744558 -0.0070671 -0.00213638 C 0 GLU
5 C5 -0.73222 0.728663 1.30498 C 0 GLU
6 C6 2.74921 0.00934266 0.0205532 C 1 GLU
7 C7 2.7747 0.383702 0.669941 C 1 GLU
8 C8 2.8002 0.758061 1.31933 C 1 GLU
9 C9 3.74862 -0.011054 -0.00692936 C 1 GLU
10 C10 3.79962 0.737664 1.29185 C 1 GLU
11 C11 1.49558 1.28573 2.49395 C 2 GLU
12 C12 1.49118 1.57074 1.80023 C 2 GLU
13 C13 1.48679 1.85574 1.1065 C 2 GLU
14 C14 0.80909 2.15766 1.23483 C 2 GLU
15 C15 2.10509 2.25453 1.26642 C 2 GLU
16 C16 0.142141 2.4511 1.35961 C 2 GLU
17 C17 2.71421 2.64335 1.4223 C 2 GLU
18 C18 1.50437 0.715725 3.8814 C 2 GLU
19 H19 0.962126 1.15935 0.903784 H 3 GLU
20 H20 2.11646 1.24241 0.978542 H 4 GLU
21 H21 2.48899 1.31587 2.49626 H 5 GLU
22 C22 1.48257 4.98606 1.15117 C 6 GLU
23 C23 1.48762 4.34644 2.50795 C 6 GLU
24 C24 1.49266 3.70682 3.86474 C 6 GLU
25 O25 -0.508353 3.2968 -1.09321 O 7 GLU
26 O26 -0.466687 3.29229 -0.0940848 O 7 GLU
27 O27 3.50258 3.3031 -1.1042 O 8 GLU
28 O28 3.51415 3.30322 -0.104264 O 8 GLU
29 O29 -0.451478 4.00989 -0.300489 O 9 GLU
30 O30 0.548255 4.0183 -0.278975 O 9 GLU
31 O31 1.54799 4.02671 -0.257462 O 9 GLU
32 O32 2.54772 4.03513 -0.235948 O 9 GLU
33 O33 3.54746 4.04354 -0.214435 O 9 GLU
34 O34 -0.452722 4.49246 -0.431354 O 9 GLU
35 O35 0.547011 4.50087 -0.40984 O 9 GLU
36 O36 1.54675 4.50928 -0.388327 O 9 GLU
37 O37 2.54648 4.51769 -0.366813 O 9 GLU
38 O38 3.54621 4.52611 -0.3453 O 9 GLU
39 O39 -0.463583 4.38198 0.11653 O 9 GLU
40 O40 0.536151 4.39039 0.138043 O 9 GLU
41 O41 1.53588 4.3988 0.159557 O 9 GLU
42 O42 2.53562 4.40721 0.18107 O 9 GLU
43 O43 3.53535 4.41562 0.202584 O 9 GLU
44 O44 1.48867 3.28121 2.50527 O 10 GLU
45 H45 -1.75 0 0 H 11 GLU
46 H46 4.75 0 0 H 12 GLU
47 H47 -0.5 2.3 -1.1 H 13 GLU
48 H48 3.5 2.3 -1.1 H 14 GLU
49 H49 2.5 4.3 2.5 H 15 GLU
50 C50 3.75081 -3.23671 -1.31788 C 16 GLU
51 C51 3.74373 -2.49696 -0.0129997 C 16 GLU
52 C52 3.73666 -1.75721 1.29189 C 16 GLU
53 C53 6.75075 -3.2409 -1.29925 C 16 GLU
54 C54 6.74367 -2.50115 0.0056352 C 16 GLU
55 C55 6.7366 -1.76141 1.31052 C 16 GLU
56 H56 2.75 -2.5 0 H 17 GLU
57 H57 7.75 -2.5 0 H 18 GLU
58 O58 4.43816 -13.3866 1.59053 O 19 GLU
59 O59 5.62974 -13.3554 2.50113 O 19 GLU
60 C60 3.76697 -12.7252 -1.29942 C 20 GLU
61 C61 3.75449 -11.9894 0.00768703 C 20 GLU
62 C62 3.742 -11.2537 1.31479 C 20 GLU
63 C63 3.74727 -14.2078 -1.27416 C 21 GLU
64 C64 3.7508 -15.0038 -0.00284572 C 21 GLU
65 C65 3.75434 -15.7999 1.26847 C 21 GLU
66 O66 5.70094 -12.3692 2.42219 O 22 GLU
67 O67 6.49757 -12.4015 1.81859 O 22 GLU
68 O68 7.2942 -12.4337 1.21499 O 22 GLU
69 O69 8.09084 -12.466 0.611383 O 22 GLU
70 O70 8.88747 -12.4983 0.00778108 O 22 GLU
71 C71 10.0521 -13.5005 -0.00940526 C 23 GLU
72 C72 9.053 -13.4984 0.0320813 C 23 GLU
73 C73 4.77254 -13.5348 -0.454359 C 24 GLU
74 C74 3.54402 -13.5617 0.405886 C 24 GLU
75 C75 2.31551 -13.5887 1.26613 C 24 GLU
76 O76 3.25949 -13.4851 0.00194328 O 24 GLU
77 C77 6.74883 -13.4971 -1.13282 C 25 GLU
78 C78 6.74356 -12.4973 -1.15143 C 25 GLU
79 H79 10.05 -14.5 0 H 26 GLU
80 O80 8.25065 -6.523 0.041253 O 27 GLU
81 O81 9.74215 -6.58454 0.188355 O 27 GLU
82 C82 6.76746 -5.7069 -1.3116 C 28 GLU
83 C83 6.75048 -4.99352 0.00779554 C 28 GLU
84 C84 6.7335 -4.28014 1.32719 C 28 GLU
85 C85 6.7333 -8.74245 -1.31299 C 29 GLU
86 C86 6.75639 -8.01646 -0.000578497 C 29 GLU
87 C87 6.77949 -7.29048 1.31183 C 29 GLU
88 O88 9.86707 -5.60784 0.0516333 O 30 GLU
89 O89 10.8657 -5.58344 0.00571272 O 30 GLU
90 O90 11.8644 -5.55904 -0.0402079 O 30 GLU
91 O91 12.863 -5.53464 -0.0861285 O 30 GLU
92 O92 13.8617 -5.51024 -0.132049 O 30 GLU
93 C93 13.0451 -6.50008 -0.00649049 C 31 GLU
94 C94 14.044 -6.48939 -0.0514491 C 31 GLU
95 C95 6.81346 -7.15453 -1.33323 C 32 GLU
96 C96 6.75269 -6.48487 0.00760942 C 32 GLU
97 C97 6.69193 -5.81521 1.34845 C 32 GLU
98 O98 6.25318 -6.50191 -0.00651802 O 32 GLU
99 C99 9.74918 -6.49564 -1.15103 C 33 GLU
100 C100 9.74556 -5.49566 -1.15529 C 33 GLU
101 H101 13.05 -7.5 0 H 34 GLU
102 C102 -3.75249 -3.23549 -1.30594 C 35 GLU
103 C103 -3.74875 -2.50722 0.00539596 C 35 GLU
104 C104 -3.745 -1.77895 1.31673 C 35 GLU
105 C105 -0.752536 -3.22651 -1.3195 C 35 GLU
106 C106 -0.748792 -2.49823 -0.00815983 C 35 GLU
107 C107 -0.745048 -1.76996 1.30318 C 35 GLU
108 H108 -4.75 -2.5 0 H 36 GLU
109 H109 0.25 -2.5 0 H 37 GLU
110 O110 -2.73624 -13.7345 2.40154 O 38 GLU
111 O111 -1.51422 -13.7666 1.53227 O 38 GLU
112 C112 -0.728681 -12.7235 -1.30024 C 39 GLU
113 C113 -0.757794 -11.9972 0.0118757 C 39 GLU
114 C114 -0.786908 -11.2709 1.32399 C 39 GLU
115 C115 -0.733157 -14.2422 -1.27791 C 40 GLU
116 C116 -0.749946 -15.0039 0.0142417 C 40 GLU
117 C117 -0.766734 -15.7655 1.30639 C 40 GLU
118 O118 -6.04431 -12.5125 0.25563 O 41 GLU
119 O119 -5.22055 -12.5736 0.819278 O 41 GLU
120 O120 -4.3968 -12.6347 1.38293 O 41 GLU
121 O121 -3.57305 -12.6958 1.94658 O 41 GLU
122 O122 -2.74929 -12.7568 2.51022 O 41 GLU
123 C123 -6.06007 -13.5119 0.132661 C 42 GLU
124 C124 -7.05095 -13.5126 -0.00209521 C 42 GLU
125 C125 -1.74287 -13.5539 -0.495283 C 43 GLU
126 C126 -0.547552 -13.5482 0.410905 C 43 GLU
127 C127 0.647769 -13.5426 1.31709 C 43 GLU
128 O128 -0.247403 -13.4944 0.0146524 O 43 GLU
129 C129 -3.73946 -13.5038 -1.13981 C 44 GLU
130 C130 -3.75629 -12.504 -1.15112 C 44 GLU
131 H131 -7.05 -14.5 0 H 45 GLU
132 O132 -6.74486 -6.61306 0.20293 O 46 GLU
133 O133 -5.25675 -6.55341 0.0240994 O 46 GLU
134 C134 -3.74973 -5.70176 -1.30524 C 47 GLU
135 C135 -3.75932 -4.99278 0.0166009 C 47 GLU
136 C136 -3.76891 -4.2838 1.33844 C 47 GLU
137 C137 -3.75784 -8.76247 -1.27975 C 48 GLU
138 C138 -3.75173 -8.00064 0.0123693 C 48 GLU
139 C139 -3.74562 -7.23881 1.30449 C 48 GLU
140 O140 -10.8755 -5.53074 0.0986535 O 49 GLU
141 O141 -9.876 -5.55153 0.122744 O 49 GLU
142 O142 -8.87651 -5.57232 0.146835 O 49 GLU
143 O143 -7.87702 -5.5931 0.170925 O 49 GLU
144 O144 -6.87752 -5.61389 0.195016 O 49 GLU
145 C145 -11.0422 -6.51264 0.0437326 C 50 GLU
146 C146 -10.0428 -6.50232 0.00969113 C 50 GLU
147 C147 -3.7454 -7.25097 -1.30925 C 51 GLU
148 C148 -3.74936 -6.50959 -0.00528395 C 51 GLU
149 C149 -3.75333 -5.7682 1.29868 C 51 GLU
150 O150 -3.24938 -6.51231 -0.0022161 O 51 GLU
151 C151 -6.75246 -6.5037 -1.1343 C 52 GLU
152 C152 -6.75007 -5.50406 -1.16094 C 52 GLU
153 H153 -10.05 -7.5 0 H 53 GLU
154 C154 2.50578 11.9975 5.49386 C 54 GLU
155 C155 2.51899 12.2619 6.19558 C 54 GLU
156 C156 2.53219 12.5263 6.89731 C 54 GLU
157 C157 1.50597 11.9964 5.51311 C 54 GLU
158 C158 1.53238 12.5252 6.91656 C 54 GLU
159 C159 5.0035 12.01 5.51053 C 55 GLU
160 C160 5.00468 12.3573 6.17524 C 55 GLU
161 C161 5.00585 12.7047 6.83995 C 55 GLU
162 C162 6.00349 12.0134 5.50695 C 55 GLU
163 C163 6.00584 12.7081 6.83637 C 55 GLU
164 C164 3.76036 13.2966 8.01244 C 56 GLU
165 C165 3.72573 13.5335 7.3017 C 56 GLU
166 C166 3.69109 13.7705 6.59096 C 56 GLU
167 C167 3.09247 14.1941 6.76137 C 56 GLU
168 C168 4.38155 14.0638 6.65511 C 56 GLU
169 C169 2.50256 14.6074 6.92789 C 56 GLU
170 C170 5.06088 14.3487 6.717 C 56 GLU
171 C171 3.82962 12.8227 9.43393 C 56 GLU
172 H172 3.05851 13.1262 6.4775 H 57 GLU
173 H173 4.22087 13.0562 6.51506 H 58 GLU
174 H174 4.75163 13.3043 8.00227 H 59 GLU
175 C175 3.76077 16.8281 6.59387 C 60 GLU
176 C176 3.7519 16.3235 8.00642 C 60 GLU
177 C177 3.74303 15.8189 9.41897 C 60 GLU
178 O178 1.75035 15.2915 4.40161 O 61 GLU
179 O179 2.74746 15.287 4.47749 O 61 GLU
180 O180 5.74303 15.311 4.40189 O 62 GLU
181 O181 6.74281 15.3149 4.3814 O 62 GLU
182 O182 2.75909 16.0455 4.53317 O 63 GLU
183 O183 3.75881 16.0504 4.51017 O 63 GLU
184 O184 4.75854 16.0552 4.48718 O 63 GLU
185 O185 5.75826 16.06 4.46418 O 63 GLU
186 O186 6.75799 16.0649 4.44118 O 63 GLU
187 O187 2.75704 16.5453 4.54882 O 63 GLU
188 O188 3.75676 16.5501 4.52583 O 63 GLU
189 O189 4.75649 16.5549 4.50283 O 63 GLU
190 O190 5.75621 16.5598 4.47983 O 63 GLU
191 O191 6.75593 16.5646 4.45684 O 63 GLU
192 O192 2.76963 16.2798 5.04062 O 63 GLU
193 O193 3.76936 16.2846 5.01762 O 63 GLU
194 O194 4.76908 16.2895 4.99463 O 63 GLU
195 O195 5.7688 16.2943 4.97163 O 63 GLU
196 O196 6.76853 16.2991 4.94863 O 63 GLU
197 O197 3.749 15.2828 8.00506 O 64 GLU
198 H198 0.5 12 5.5 H 65 GLU
199 H199 7 12 5.5 H 66 GLU
200 H200 1.75 14.3 4.4 H 67 GLU
201 H201 5.75 14.3 4.4 H 68 GLU
202 H202 4.75 16.3 8 H 69 GLU
203 O203 7.41199 8.33824 5.83645 O 70 GLU
204 O204 8.78824 8.30261 6.43199 O 70 GLU
205 C205 6.01651 8.81481 4.16405 C 71 GLU
206 C206 6.01663 9.50586 5.49539 C 71 GLU
207 C207 6.01676 10.1969 6.82672 C 71 GLU
208 C208 5.95522 5.78485 4.16037 C 72 GLU
209 C209 6.0029 6.49498 5.48077 C 72 GLU
210 C210 6.05058 7.20511 6.80116 C 72 GLU
211 O211 8.75803 9.29982 6.36168 O 73 GLU
212 O212 9.63889 9.2207 5.89496 O 73 GLU
213 O213 10.5198 9.14159 5.42825 O 73 GLU
214 O214 11.4006 9.06248 4.96153 O 73 GLU
215 O215 12.2815 8.98337 4.49481 O 73 GLU
216 C216 12.2949 8.00302 5.50016 C 74 GLU
217 C217 12.355 7.99659 4.50199 C 74 GLU
218 C218 6.38245 7.42019 4.32219 C 75 GLU
219 C219 5.98213 8.00755 5.64308 C 75 GLU
220 C220 5.58181 8.5949 6.96397 C 75 GLU
221 O221 5.50316 8.0037 5.49963 O 75 GLU
222 C222 9.01112 7.99813 4.33849 C 76 GLU
223 C223 9.00218 8.99799 4.35291 C 76 GLU
224 H224 12.3 7 5.5 H 77 GLU
225 O225 -0.866434 8.34872 7.44357 O 78 GLU
226 O226 0.410999 8.38439 6.65815 O 78 GLU
227 C227 1.5072 8.95406 4.10685 C 79 GLU
228 C228 1.50445 9.50314 5.50274 C 79 GLU
229 C229 1.5017 10.0522 6.89862 C 79 GLU
230 C230 1.51538 5.8742 4.14282 C 80 GLU
231 C231 1.50344 6.50681 5.50284 C 80 GLU
232 C232 1.49151 7.13943 6.86286 C 80 GLU
233 O233 -4.64972 9.01112 6.46074 O 81 GLU
234 O234 -3.69054 9.09334 6.73135 O 81 GLU
235 O235 -2.73137 9.17555 7.00196 O 81 GLU
236 O236 -1.7722 9.25777 7.27258 O 81 GLU
237 O237 -0.813033 9.33998 7.54319 O 81 GLU
238 C238 -4.69384 8.00573 6.48813 C 82 GLU
239 C239 -4.79073 8.00761 5.49284 C 82 GLU
240 C240 0.688528 7.76421 4.64125 C 83 GLU
241 C241 1.59485 8.10274 5.78753 C 83 GLU
242 C242 2.50118 8.44126 6.93382 C 83 GLU
243 O243 1.99324 8.01175 5.49942 O 83 GLU
244 C244 -1.50617 7.99378 4.35259 C 84 GLU
245 C245 -1.48959 8.99362 4.34525 C 84 GLU
246 H246 -4.8 7 5.5 H 85 GLU
247 C247 4.74694 23.9914 11.0069 C 86 GLU
248 C248 4.74872 24.2249 11.7196 C 86 GLU
249 C249 4.7505 24.4584 12.4323 C 86 GLU
250 C250 3.74699 24.0007 11.0063 C 86 GLU
251 C251 3.75054 24.4678 12.4318 C 86 GLU
252 C252 7.24771 23.9953 10.9943 C 87 GLU
253 C253 7.25612 24.346 11.6572 C 87 GLU
254 C254 7.26452 24.6966 12.3201 C 87 GLU
255 C255 8.24764 23.9932 10.9827 C 87 GLU
256 C256 8.26445 24.6945 12.3086 C 87 GLU
257 C257 5.99323 25.2976 13.5031 C 88 GLU
258 C258 5.93356 25.4954 12.7821 C 88 GLU
259 C259 5.87389 25.6932 12.0611 C 88 GLU
260 C260 5.21628 26.0293 12.2077 C 88 GLU
261 C261 6.51172 26.0893 12.117 C 88 GLU
262 C262 4.5689 26.3562 12.351 C 88 GLU
263 C263 7.13985 26.4754 12.1709 C 88 GLU
264 C264 6.11257 24.902 14.945 C 88 GLU
265 H265 5.44049 24.904 12.0531 H 89 GLU
266 H266 6.50453 25.0523 11.9974 H 90 GLU
267 H267 6.99544 25.2984 13.4987 H 91 GLU
268 C268 6.00878 28.7256 12.0593 C 92 GLU
269 C269 6.00219 28.3044 13.4989 C 92 GLU
270 C270 5.99561 27.8831 14.9385 C 92 GLU
271 O271 4.00502 27.3019 9.88981 O 93 GLU
272 O272 4.01373 27.2989 8.88985 O 93 GLU
273 O273 7.99604 27.3043 9.90643 O 94 GLU
274 O274 8.052 27.3094 8.90801 O 94 GLU
275 O275 4.06588 28.0406 8.90517 O 95 GLU
276 O276 5.06587 28.0436 8.90175 O 95 GLU
277 O277 6.06586 28.0466 8.89833 O 95 GLU
278 O278 7.06585 28.0496 8.89492 O 95 GLU
279 O279 8.06584 28.0526 8.8915 O 95 GLU
280 O280 4.06443 28.5403 8.92038 O 95 GLU
281 O281 5.06442 28.5433 8.91697 O 95 GLU
282 O282 6.06441 28.5463 8.91355 O 95 GLU
283 O283 7.0644 28.5493 8.91013 O 95 GLU
284 O284 8.06439 28.5523 8.90672 O 95 GLU
285 O285 4.06691 28.2752 9.41254 O 95 GLU
286 O286 5.0669 28.2782 9.40912 O 95 GLU
287 O287 6.06689 28.2812 9.40571 O 95 GLU
288 O288 7.06688 28.2842 9.40229 O 95 GLU
289 O289 8.06687 28.2872 9.39887 O 95 GLU
290 O290 5.99667 27.2741 13.4844 O 96 GLU
291 H291 2.75 24 11 H 97 GLU
292 H292 9.25 24 11 H 98 GLU
293 H293 4 26.3 9.9 H 99 GLU
294 H294 8 26.3 9.9 H 100 GLU
295 H295 7 28.3 13.5 H 101 GLU
296 O296 9.29858 19.96 12.1416 O 102 GLU
297 O297 10.3404 19.9468 13.2207 O 102 GLU
298 C298 8.24896 20.8209 9.66873 C 103 GLU
299 C299 8.252 21.5052 11.0036 C 103 GLU
300 C300 8.25504 22.1894 12.3384 C 103 GLU
301 C301 8.24395 17.8208 9.66254 C 104 GLU
302 C302 8.25025 18.4966 11.0017 C 104 GLU
303 C303 8.25655 19.1723 12.3408 C 104 GLU
304 O304 10.3285 20.9439 13.2452 O 105 GLU
305 O305 11.1353 20.9612 12.6547 O 105 GLU
306 O306 11.9422 20.9784 12.0642 O 105 GLU
307 O307 12.749 20.9957 11.4736 O 105 GLU
308 O308 13.5558 21.0129 10.8831 O 105 GLU
309 C309 14.5468 19.9987 10.9928 C 106 GLU
310 C310 13.5578 19.9964 10.8444 C 106 GLU
311 C311 8.98754 19.5764 10.1279 C 107 GLU
312 C312 8.13967 20.1333 11.2329 C 107 GLU
313 C313 7.2918 20.6902 12.3379 C 107 GLU
314 O314 7.72741 19.9921 10.9877 O 107 GLU
315 C315 11.2694 20.0038 9.84528 C 108 GLU
316 C316 11.2554 21.0037 9.84332 C 108 GLU
317 H317 14.55 19 11 H 109 GLU
318 O318 1.65491 20.362 13.2482 O 110 GLU
319 O319 2.81246 20.4171 12.2958 O 110 GLU
320 C320 3.74997 21.0061 9.57591 C 111 GLU
321 C321 3.76188 21.4887 10.9961 C 111 GLU
322 C322 3.77378 21.9713 12.4163 C 111 GLU
323 C323 3.73481 18.014 9.5803 C 112 GLU
324 C324 3.75073 18.4955 11.0008 C 112 GLU
325 C325 3.76665 18.977 12.4214 C 112 GLU
326 O326 -1.5879 20.9804 10.8275 O 113 GLU
327 O327 -0.786582 21.0754 11.4182 O 113 GLU
328 O328 0.0147368 21.1704 12.0088 O 113 GLU
329 O329 0.816056 21.2654 12.5995 O 113 GLU
330 O330 1.61738 21.3604 13.1901 O 113 GLU
331 C331 -1.55537 20.0143 11.0263 C 114 GLU
332 C332 -2.55494 20.0098 10.9971 C 114 GLU
333 C333 2.86455 19.9414 10.2352 C 115 GLU
334 C334 3.88769 19.9798 11.3314 C 115 GLU
335 C335 4.91083 20.0182 12.4276 C 115 GLU
336 O336 4.25248 20.0018 10.9902 O 115 GLU
337 C337 0.751655 19.9964 9.84759 C 116 GLU
338 C338 0.748972 20.9964 9.85803 C 116 GLU
339 H339 -2.55 19 11 H 117 GLU
340 C340 6.99926 36.0057 16.5147 C 118 GLU
341 C341 6.98095 36.3413 17.1852 C 118 GLU
342 C342 6.96265 36.6769 17.8557 C 118 GLU
343 C343 5.99958 35.9884 16.4961 C 118 GLU
344 C344 5.96297 36.6596 17.8371 C 118 GLU
345 C345 9.49758 35.9891 16.4841 C 119 GLU
346 C346 9.49158 36.4041 17.1088 C 119 GLU
347 C347 9.48558 36.819 17.7336 C 119 GLU
348 C348 10.4975 35.9983 16.4876 C 119 GLU
349 C349 10.4855 36.8283 17.737 C 119 GLU
350 C350 8.24851 37.3016 19.0098 C 120 GLU
351 C351 8.22374 37.5935 18.3194 C 120 GLU
352 C352 8.19897 37.8854 17.629 C 120 GLU
353 C353 7.53721 38.2071 17.7887 C 120 GLU
354 C354 8.8358 38.2631 17.7658 C 120 GLU
355 C355 6.88577 38.52 17.9444 C 120 GLU
356 C356 9.46298 38.6311 17.8989 C 120 GLU
357 C357 8.29806 36.7177 20.3906 C 120 GLU
358 H358 7.63094 37.1792 17.5205 H 121 GLU
359 H359 8.67533 37.1209 17.513 H 122 GLU
360 H360 9.2481 37.3028 19.0068 H 123 GLU
361 C361 8.25301 40.9268 17.6306 C 124 GLU
362 C362 8.24563 40.3208 19.0027 C 124 GLU
363 C363 8.23825 39.7148 20.3748 C 124 GLU
364 O364 6.25246 39.3101 15.3873 O 125 GLU
365 O365 5.26495 39.3068 15.2298 O 125 GLU
366 O366 10.246 39.2914 15.3926 O 126 GLU
367 O367 9.24763 39.2842 15.4493 O 126 GLU
368 O368 5.24446 40.0515 15.17 O 127 GLU
369 O369 6.24329 40.0417 15.2174 O 127 GLU
370 O370 7.24212 40.0319 15.2648 O 127 GLU
371 O371 8.24095 40.0221 15.3121 O 127 GLU
372 O372 9.23978 40.0123 15.3595 O 127 GLU
373 O373 5.25106 40.5502 15.1341 O 127 GLU
374 O374 6.24989 40.5404 15.1815 O 127 GLU
375 O375 7.24872 40.5305 15.2288 O 127 GLU
376 O376 8.24755 40.5207 15.2762 O 127 GLU
377 O377 9.24638 40.5109 15.3235 O 127 GLU
378 O378 5.2245 40.3371 15.6502 O 127 GLU
379 O379 6.22333 40.3272 15.6976 O 127 GLU
380 O380 7.22216 40.3174 15.7449 O 127 GLU
381 O381 8.22099 40.3076 15.7923 O 127 GLU
382 O382 9.21982 40.2978 15.8396 O 127 GLU
383 O383 8.25902 39.2728 19.0015 O 128 GLU
384 H384 5 36 16.5 H 129 GLU
385 H385 11.5 36 16.5 H 130 GLU
386 H386 6.25 38.3 15.4 H 131 GLU
387 H387 10.25 38.3 15.4 H 132 GLU
388 H388 9.25 40.3 19 H 133 GLU
389 O389 11.809 31.9918 17.3632 O 134 GLU
390 O390 13.0864 31.9766 18.1493 O 134 GLU
391 C391 10.5094 32.7031 15.2418 C 135 GLU
392 C392 10.4994 33.5138 16.5038 C 135 GLU
393 C393 10.4893 34.3246 17.7657 C 135 GLU
394 C394 10.5038 29.7852 15.1848 C 136 GLU
395 C395 10.4837 30.5001 16.5033 C 136 GLU
396 C396 10.4635 31.2149 17.8219 C 136 GLU
397 O397 12.9962 32.9602 18.2256 O 137 GLU
398 O398 13.9815 32.9673 18.0546 O 137 GLU
399 O399 14.9667 32.9744 17.8836 O 137 GLU
400 O400 15.952 32.9815 17.7127 O 137 GLU
401 O401 16.9372 32.9887 17.5417 O 137 GLU
402 C402 16.7885 31.9931 16.4996 C 138 GLU
403 C403 16.8268 31.9884 17.4988 C 138 GLU
404 C404 11.046 31.4453 15.4228 C 139 GLU
405 C405 10.48 32.0464 16.6751 C 139 GLU
406 C406 9.9139 32.6475 17.9274 C 139 GLU
407 O407 10.0173 31.9829 16.4964 O 139 GLU
408 C408 13.5047 31.9958 15.3543 C 140 GLU
409 C409 13.4928 32.9958 15.3559 C 140 GLU
410 H410 16.8 31 16.5 H 141 GLU
411 O411 3.2464 32.2138 17.7682 O 142 GLU
412 O412 4.65739 32.2125 17.2592 O 142 GLU
413 C413 5.9856 32.8516 15.1507 C 143 GLU
414 C414 5.9969 33.5023 16.5021 C 143 GLU
415 C415 6.00819 34.153 17.8536 C 143 GLU
416 C416 6.01116 30.068 15.0642 C 144 GLU
417 C417 6.00253 30.5034 16.4996 C 144 GLU
418 C418 5.99389 30.9387 17.935 C 144 GLU
419 O419 -0.210707 33.0142 15.5237 O 145 GLU
420 O420 0.632028 33.0588 16.0602 O 145 GLU
421 O421 1.47476 33.1034 16.5967 O 145 GLU
422 O422 2.3175 33.148 17.1332 O 145 GLU
423 O423 3.16023 33.1926 17.6697 O 145 GLU
424 C424 -0.258708 32.0276 15.4995 C 146 GLU
425 C425 -0.291801 32.014 16.4988 C 146 GLU
426 C426 5.42101 31.4766 15.4553 C 147 GLU
427 C427 6.03918 32.0163 16.711 C 147 GLU
428 C428 6.65736 32.5559 17.9666 C 147 GLU
429 O429 6.49062 31.9974 16.4969 O 147 GLU
430 C430 3.01624 31.9882 15.3387 C 148 GLU
431 C431 3.0021 32.9881 15.3373 C 148 GLU
432 H432 -0.3 31 16.5 H 149 GLU
433 O433 5.42681 44.7567 19.9679 O 150 GLU
434 O434 6.87153 44.8122 19.5683 O 150 GLU
435 C435 8.24963 46.7337 17.7015 C 151 GLU
436 C436 8.23521 45.9981 19.0087 C 151 GLU
437 C437 8.22078 45.2626 20.3159 C 151 GLU
438 C438 8.24482 43.5787 17.6177 C 152 GLU
439 C439 8.25946 42.999 19.001 C 152 GLU
440 C440 8.2741 42.4192 20.3844 C 152 GLU
441 O441 1.88396 45.5037 18.0504 O 153 GLU
442 O442 2.75813 45.5677 18.5318 O 153 GLU
443 O443 3.63229 45.6317 19.0132 O 153 GLU
444 O444 4.50646 45.6956 19.4946 O 153 GLU
445 O445 5.38062 45.7596 19.976 O 153 GLU
446 C446 1.86408 44.4884 17.9954 C 154 GLU
447 C447 1.96314 44.4948 18.9905 C 154 GLU
448 C448 7.93276 45.0456 17.7683 C 155 GLU
449 C449 8.26367 44.4497 19.1045 C 155 GLU
450 C450 8.59458 43.8538 20.4407 C 155 GLU
451 O451 8.75114 44.4812 18.9978 O 155 GLU
452 C452 5.24883 44.5076 17.8545 C 156 GLU
453 C453 5.25155 45.5076 17.8533 C 156 GLU
454 H454 1.95 43.5 19 H 157 GLU
455 H455 0.255361 -0.00263304 -0.0140703 H 0 GLU
456 H456 2.74921 0.00934266 0.0205532 H 1 GLU
457 H457 0.267699 0.733097 1.29304 H 0 GLU
458 H458 0.962126 1.15935 0.903784 H 3 GLU
459 H459 2.8002 0.758061 1.31933 H 1 GLU
460 H460 2.11646 1.24241 0.978542 H 4 GLU
461 H461 1.48679 1.85574 1.1065 H 2 GLU
462 H462 1.49558 1.28573 2.49395 H 2 GLU
463 H463 2.48899 1.31587 2.49626 H 5 GLU
464 H464 1.50437 0.715725 3.8814 H 2 GLU
465 H465 1.49266 3.70682 3.86474 H 6 GLU
466 H466 -0.466687 3.29229 -0.0940848 H 7 GLU
467 H467 -0.451478 4.00989 -0.300489 H 9 GLU
468 H468 3.51415 3.30322 -0.104264 H 8 GLU
469 H469 3.54746 4.04354 -0.214435 H 9 GLU
470 H470 1.48762 4.34644 2.50795 H 6 GLU
471 H471 1.48867 3.28121 2.50527 H 10 GLU
472 H472 -1.75 0 0 H 11 GLU
473 H473 -0.744558 -0.0070671 -0.00213638 H 0 GLU
474 H474 4.75 0 0 H 12 GLU
475 H475 3.74862 -0.011054 -0.00692936 H 1 GLU
476 H476 -0.5 2.3 -1.1 H 13 GLU
477 H477 -0.508353 3.2968 -1.09321 H 7 GLU
478 H478 3.5 2.3 -1.1 H 14 GLU
479 H479 3.50258 3.3031 -1.1042 H 8 GLU
480 H480 2.5 4.3 2.5 H 15 GLU
481 H481 3.74373 -2.49696 -0.0129997 H 16 GLU
482 H482 2.75 -2.5 0 H 17 GLU
483 H483 6.74367 -2.50115 0.0056352 H 16 GLU
484 H484 7.75 -2.5 0 H 18 GLU
485 H485 5.62974 -13.3554 2.50113 H 19 GLU
486 H486 5.70094 -12.3692 2.42219 H 22 GLU
487 H487 8.88747 -12.4983 0.00778108 H 22 GLU
488 H488 9.053 -13.4984 0.0320813 H 23 GLU
489 H489 4.43816 -13.3866 1.59053 H 19 GLU
490 H490 3.54402 -13.5617 0.405886 H 24 GLU
491 H491 10.05 -14.5 0 H 26 GLU
492 H492 10.0521 -13.5005 -0.00940526 H 23 GLU
493 H493 3.25 -12 0 H 26 GLU
494 H494 3.75449 -11.9894 0.00768703 H 20 GLU
495 H495 3.25 -15 0 H 26 GLU
496 H496 3.7508 -15.0038 -0.00284572 H 21 GLU
497 H497 3.25949 -13.4851 0.00194328 H 24 GLU
498 H498 4.25 -15 0 H 26 GLU
499 H499 6.75 -14.5 -1.15 H 26 GLU
500 H500 4.25 -12 0 H 26 GLU
501 H501 6.75 -11.5 -1.15 H 26 GLU
502 H502 6.74883 -13.4971 -1.13282 H 25 GLU
503 H503 6.74356 -12.4973 -1.15143 H 25 GLU
504 H504 9.74215 -6.58454 0.188355 H 27 GLU
505 H505 9.86707 -5.60784 0.0516333 H 30 GLU
506 H506 13.8617 -5.51024 -0.132049 H 30 GLU
507 H507 14.044 -6.48939 -0.0514491 H 31 GLU
508 H508 8.25065 -6.523 0.041253 H 27 GLU
509 H509 6.75269 -6.48487 0.00760942 H 32 GLU
510 H510 13.05 -7.5 0 H 34 GLU
511 H511 13.0451 -6.50008 -0.00649049 H 31 GLU
512 H512 6.25 -5 0 H 34 GLU
513 H513 6.75048 -4.99352 0.00779554 H 28 GLU
514 H514 6.25 -8 0 H 34 GLU
515 H515 6.75639 -8.01646 -0.000578497 H 29 GLU
516 H516 6.25318 -6.50191 -0.00651802 H 32 GLU
517 H517 7.25 -8 0 H 34 GLU
518 H518 9.75 -7.5 -1.15 H 34 GLU
519 H519 7.25 -5 0 H 34 GLU
520 H520 9.75 -4.5 -1.15 H 34 GLU
521 H521 9.74918 -6.49564 -1.15103 H 33 GLU
522 H522 9.74556 -5.49566 -1.15529 H 33 GLU
523 H523 6.7366 -1.76141 1.31052 H 16 GLU
524 H524 6.7335 -4.28014 1.32719 H 28 GLU
525 H525 3.73666 -1.75721 1.29189 H 16 GLU
526 H526 3.742 -11.2537 1.31479 H 20 GLU
527 H527 -3.74875 -2.50722 0.00539596 H 35 GLU
528 H528 -4.75 -2.5 0 H 36 GLU
529 H529 -0.748792 -2.49823 -0.00815983 H 35 GLU
530 H530 0.25 -2.5 0 H 37 GLU
531 H531 -2.73624 -13.7345 2.40154 H 38 GLU
532 H532 -2.74929 -12.7568 2.51022 H 41 GLU
533 H533 -6.04431 -12.5125 0.25563 H 41 GLU
534 H534 -6.06007 -13.5119 0.132661 H 42 GLU
535 H535 -1.51422 -13.7666 1.53227 H 38 GLU
536 H536 -0.547552 -13.5482 0.410905 H 43 GLU
537 H537 -7.05 -14.5 0 H 45 GLU
538 H538 -7.05095 -13.5126 -0.00209521 H 42 GLU
539 H539 -0.25 -12 0 H 45 GLU
540 H540 -0.757794 -11.9972 0.0118757 H 39 GLU
541 H541 -0.25 -15 0 H 45 GLU
542 H542 -0.749946 -15.0039 0.0142417 H 40 GLU
543 H543 -0.247403 -13.4944 0.0146524 H 43 GLU
544 H544 -1.25 -15 0 H 45 GLU
545 H545 -3.75 -14.5 -1.15 H 45 GLU
546 H546 -1.25 -12 0 H 45 GLU
547 H547 -3.75 -11.5 -1.15 H 45 GLU
548 H548 -3.73946 -13.5038 -1.13981 H 44 GLU
549 H549 -3.75629 -12.504 -1.15112 H 44 GLU
550 H550 -6.74486 -6.61306 0.20293 H 46 GLU
551 H551 -6.87752 -5.61389 0.195016 H 49 GLU
552 H552 -10.8755 -5.53074 0.0986535 H 49 GLU
553 H553 -11.0422 -6.51264 0.0437326 H 50 GLU
554 H554 -5.25675 -6.55341 0.0240994 H 46 GLU
555 H555 -3.74936 -6.50959 -0.00528395 H 51 GLU
556 H556 -10.05 -7.5 0 H 53 GLU
557 H557 -10.0428 -6.50232 0.00969113 H 50 GLU
558 H558 -3.25 -5 0 H 53 GLU
559 H559 -3.75932 -4.99278 0.0166009 H 47 GLU
560 H560 -3.25 -8 0 H 53 GLU
561 H561 -3.75173 -8.00064 0.0123693 H 48 GLU
562 H562 -3.24938 -6.51231 -0.0022161 H 51 GLU
563 H563 -4.25 -8 0 H 53 GLU
564 H564 -6.75 -7.5 -1.15 H 53 GLU
565 H565 -4.25 -5 0 H 53 GLU
566 H566 -6.75 -4.5 -1.15 H 53 GLU
567 H567 -6.75246 -6.5037 -1.1343 H 52 GLU
568 H568 -6.75007 -5.50406 -1.16094 H 52 GLU
569 H569 -3.745 -1.77895 1.31673 H 35 GLU
570 H570 -3.76891 -4.2838 1.33844 H 47 GLU
571 H571 -0.745048 -1.76996 1.30318 H 35 GLU
572 H572 -0.786908 -11.2709 1.32399 H 39 GLU
573 H573 2.50578 11.9975 5.49386 H 54 GLU
574 H574 5.0035 12.01 5.51053 H 55 GLU
575 H575 2.53219 12.5263 6.89731 H 54 GLU
576 H576 3.05851 13.1262 6.4775 H 57 GLU
577 H577 5.00585 12.7047 6.83995 H 55 GLU
578 H578 4.22087 13.0562 6.51506 H 58 GLU
579 H579 3.69109 13.7705 6.59096 H 56 GLU
580 H580 3.76036 13.2966 8.01244 H 56 GLU
581 H581 4.75163 13.3043 8.00227 H 59 GLU
582 H582 3.82962 12.8227 9.43393 H 56 GLU
583 H583 3.74303 15.8189 9.41897 H 60 GLU
584 H584 2.74746 15.287 4.47749 H 61 GLU
585 H585 2.75909 16.0455 4.53317 H 63 GLU
586 H586 6.74281 15.3149 4.3814 H 62 GLU
587 H587 6.75799 16.0649 4.44118 H 63 GLU
588 H588 3.7519 16.3235 8.00642 H 60 GLU
589 H589 3.749 15.2828 8.00506 H 64 GLU
590 H590 0.5 12 5.5 H 65 GLU
591 H591 1.50597 11.9964 5.51311 H 54 GLU
592 H592 7 12 5.5 H 66 GLU
593 H593 6.00349 12.0134 5.50695 H 55 GLU
594 H594 1.75 14.3 4.4 H 67 GLU
595 H595 1.75035 15.2915 4.40161 H 61 GLU
596 H596 5.75 14.3 4.4 H 68 GLU
597 H597 5.74303 15.311 4.40189 H 62 GLU
598 H598 4.75 16.3 8 H 69 GLU
599 H599 8.78824 8.30261 6.43199 H 70 GLU
600 H600 8.75803 9.29982 6.36168 H 73 GLU
601 H601 12.2815 8.98337 4.49481 H 73 GLU
602 H602 12.355 7.99659 4.50199 H 74 GLU
603 H603 7.41199 8.33824 5.83645 H 70 GLU
604 H604 5.98213 8.00755 5.64308 H 75 GLU
605 H605 12.3 7 5.5 H 77 GLU
606 H606 12.2949 8.00302 5.50016 H 74 GLU
607 H607 5.5 9.5 5.5 H 77 GLU
608 H608 6.01663 9.50586 5.49539 H 71 GLU
609 H609 5.5 6.5 5.5 H 77 GLU
610 H610 6.0029 6.49498 5.48077 H 72 GLU
611 H611 5.50316 8.0037 5.49963 H 75 GLU
612 H612 6.5 6.5 5.5 H 77 GLU
613 H613 9 7 4.35 H 77 GLU
614 H614 6.5 9.5 5.5 H 77 GLU
615 H615 9 10 4.35 H 77 GLU
616 H616 9.01112 7.99813 4.33849 H 76 GLU
617 H617 9.00218 8.99799 4.35291 H 76 GLU
618 H618 -0.866434 8.34872 7.44357 H 78 GLU
619 H619 -0.813033 9.33998 7.54319 H 81 GLU
620 H620 -4.64972 9.01112 6.46074 H 81 GLU
621 H621 -4.69384 8.00573 6.48813 H 82 GLU
622 H622 0.410999 8.38439 6.65815 H 78 GLU
623 H623 1.59485 8.10274 5.78753 H 83 GLU
624 H624 -4.8 7 5.5 H 85 GLU
625 H625 -4.79073 8.00761 5.49284 H 82 GLU
626 H626 2 9.5 5.5 H 85 GLU
627 H627 1.50445 9.50314 5.50274 H 79 GLU
628 H628 2 6.5 5.5 H 85 GLU
629 H629 1.50344 6.50681 5.50284 H 80 GLU
630 H630 1.99324 8.01175 5.49942 H 83 GLU
631 H631 1 6.5 5.5 H 85 GLU
632 H632 -1.5 7 4.35 H 85 GLU
633 H633 1 9.5 5.5 H 85 GLU
634 H634 -1.5 10 4.35 H 85 GLU
635 H635 -1.50617 7.99378 4.35259 H 84 GLU
636 H636 -1.48959 8.99362 4.34525 H 84 GLU
637 H637 4.74694 23.9914 11.0069 H 86 GLU
638 H638 7.24771 23.9953 10.9943 H 87 GLU
639 H639 4.7505 24.4584 12.4323 H 86 GLU
640 H640 5.44049 24.904 12.0531 H 89 GLU
641 H641 7.26452 24.6966 12.3201 H 87 GLU
642 H642 6.50453 25.0523 11.9974 H 90 GLU
643 H643 5.87389 25.6932 12.0611 H 88 GLU
644 H644 5.99323 25.2976 13.5031 H 88 GLU
645 H645 6.99544 25.2984 13.4987 H 91 GLU
646 H646 6.11257 24.902 14.945 H 88 GLU
647 H647 5.99561 27.8831 14.9385 H 92 GLU
648 H648 4.01373 27.2989 8.88985 H 93 GLU
649 H649 4.06588 28.0406 8.90517 H 95 GLU
650 H650 8.052 27.3094 8.90801 H 94 GLU
651 H651 8.06584 28.0526 8.8915 H 95 GLU
652 H652 6.00219 28.3044 13.4989 H 92 GLU
653 H653 5.99667 27.2741 13.4844 H 96 GLU
654 H654 2.75 24 11 H 97 GLU
655 H655 3.74699 24.0007 11.0063 H 86 GLU
656 H656 9.25 24 11 H 98 GLU
657 H657 8.24764 23.9932 10.9827 H 87 GLU
658 H658 4 26.3 9.9 H 99 GLU
659 H659 4.00502 27.3019 9.88981 H 93 GLU
660 H660 8 26.3 9.9 H 100 GLU
661 H661 7.99604 27.3043 9.90643 H 94 GLU
662 H662 7 28.3 13.5 H 101 GLU
663 H663 10.3404 19.9468 13.2207 H 102 GLU
664 H664 10.3285 20.9439 13.2452 H 105 GLU
665 H665 13.5558 21.0129 10.8831 H 105 GLU
666 H666 13.5578 19.9964 10.8444 H 106 GLU
667 H667 9.29858 19.96 12.1416 H 102 GLU
668 H668 8.13967 20.1333 11.2329 H 107 GLU
669 H669 14.55 19 11 H 109 GLU
670 H670 14.5468 19.9987 10.9928 H 106 GLU
671 H671 7.75 21.5 11 H 109 GLU
672 H672 8.252 21.5052 11.0036 H 103 GLU
673 H673 7.75 18.5 11 H 109 GLU
674 H674 8.25025 18.4966 11.0017 H 104 GLU
675 H675 7.72741 19.9921 10.9877 H 107 GLU
676 H676 8.75 18.5 11 H 109 GLU
677 H677 11.25 19 9.85 H 109 GLU
678 H678 8.75 21.5 11 H 109 GLU
679 H679 11.25 22 9.85 H 109 GLU
680 H680 11.2694 20.0038 9.84528 H 108 GLU
681 H681 11.2554 21.0037 9.84332 H 108 GLU
682 H682 1.65491 20.362 13.2482 H 110 GLU
683 H683 1.61738 21.3604 13.1901 H 113 GLU
684 H684 -1.5879 20.9804 10.8275 H 113 GLU
685 H685 -1.55537 20.0143 11.0263 H 114 GLU
686 H686 2.81246 20.4171 12.2958 H 110 GLU
687 H687 3.88769 19.9798 11.3314 H 115 GLU
688 H688 -2.55 19 11 H 117 GLU
689 H689 -2.55494 20.0098 10.9971 H 114 GLU
690 H690 4.25 21.5 11 H 117 GLU
691 H691 3.76188 21.4887 10.9961 H 111 GLU
692 H692 4.25 18.5 11 H 117 GLU
693 H693 3.75073 18.4955 11.0008 H 112 GLU
694 H694 4.25248 20.0018 10.9902 H 115 GLU
695 H695 3.25 18.5 11 H 117 GLU
696 H696 0.75 19 9.85 H 117 GLU
697 H697 3.25 21.5 11 H 117 GLU
698 H698 0.75 22 9.85 H 117 GLU
699 H699 0.751655 19.9964 9.84759 H 116 GLU
700 H700 0.748972 20.9964 9.85803 H 116 GLU
701 H701 6.99926 36.0057 16.5147 H 118 GLU
702 H702 9.49758 35.9891 16.4841 H 119 GLU
703 H703 6.96265 36.6769 17.8557 H 118 GLU
704 H704 7.63094 37.1792 17.5205 H 121 GLU
705 H705 9.48558 36.819 17.7336 H 119 GLU
706 H706 8.67533 37.1209 17.513 H 122 GLU
707 H707 8.19897 37.8854 17.629 H 120 GLU
708 H708 8.24851 37.3016 19.0098 H 120 GLU
709 H709 9.2481 37.3028 19.0068 H 123 GLU
710 H710 8.29806 36.7177 20.3906 H 120 GLU
711 H711 8.23825 39.7148 20.3748 H 124 GLU
712 H712 5.26495 39.3068 15.2298 H 125 GLU
713 H713 5.24446 40.0515 15.17 H 127 GLU
714 H714 9.24763 39.2842 15.4493 H 126 GLU
715 H715 9.23978 40.0123 15.3595 H 127 GLU
716 H716 8.24563 40.3208 19.0027 H 124 GLU
717 H717 8.25902 39.2728 19.0015 H 128 GLU
718 H718 5 36 16.5 H 129 GLU
719 H719 5.99958 35.9884 16.4961 H 118 GLU
720 H720 11.5 36 16.5 H 130 GLU
721 H721 10.4975 35.9983 16.4876 H 119 GLU
722 H722 6.25 38.3 15.4 H 131 GLU
723 H723 6.25246 39.3101 15.3873 H 125 GLU
724 H724 10.25 38.3 15.4 H 132 GLU
725 H725 10.246 39.2914 15.3926 H 126 GLU
726 H726 9.25 40.3 19 H 133 GLU
727 H727 13.0864 31.9766 18.1493 H 134 GLU
728 H728 12.9962 32.9602 18.2256 H 137 GLU
729 H729 16.9372 32.9887 17.5417 H 137 GLU
730 H730 16.8268 31.9884 17.4988 H 138 GLU
731 H731 11.809 31.9918 17.3632 H 134 GLU
732 H732 10.48 32.0464 16.6751 H 139 GLU
733 H733 16.8 31 16.5 H 141 GLU
734 H734 16.7885 31.9931 16.4996 H 138 GLU
735 H735 10 33.5 16.5 H 141 GLU
736 H736 10.4994 33.5138 16.5038 H 135 GLU
737 H737 10 30.5 16.5 H 141 GLU
738 H738 10.4837 30.5001 16.5033 H 136 GLU
739 H739 10.0173 31.9829 16.4964 H 139 GLU
740 H740 11 30.5 16.5 H 141 GLU
741 H741 13.5 31 15.35 H 141 GLU
742 H742 11 33.5 16.5 H 141 GLU
743 H743 13.5 34 15.35 H 141 GLU
744 H744 13.5047 31.9958 15.3543 H 140 GLU
745 H745 13.4928 32.9958 15.3559 H 140 GLU
746 H746 3.2464 32.2138 17.7682 H 142 GLU
747 H747 3.16023 33.1926 17.6697 H 145 GLU
748 H748 -0.210707 33.0142 15.5237 H 145 GLU
749 H749 -0.258708 32.0276 15.4995 H 146 GLU
750 H750 4.65739 32.2125 17.2592 H 142 GLU
751 H751 6.03918 32.0163 16.711 H 147 GLU
752 H752 -0.3 31 16.5 H 149 GLU
753 H753 -0.291801 32.014 16.4988 H 146 GLU
754 H754 6.5 33.5 16.5 H 149 GLU
755 H755 5.9969 33.5023 16.5021 H 143 GLU
756 H756 6.5 30.5 16.5 H 149 GLU
757 H757 6.00253 30.5034 16.4996 H 144 GLU
758 H758 6.49062 31.9974 16.4969 H 147 GLU
759 H759 5.5 30.5 16.5 H 149 GLU
760 H760 3 31 15.35 H 149 GLU
761 H761 5.5 33.5 16.5 H 149 GLU
762 H762 3 34 15.35 H 149 GLU
763 H763 3.01624 31.9882 15.3387 H 148 GLU
764 H764 3.0021 32.9881 15.3373 H 148 GLU
765 H765 5.42681 44.7567 19.9679 H 150 GLU
766 H766 5.38062 45.7596 19.976 H 153 GLU
767 H767 1.88396 45.5037 18.0504 H 153 GLU
768 H768 1.86408 44.4884 17.9954 H 154 GLU
769 H769 6.87153 44.8122 19.5683 H 150 GLU
770 H770 8.26367 44.4497 19.1045 H 155 GLU
771 H771 1.95 43.5 19 H 157 GLU
772 H772 1.96314 44.4948 18.9905 H 154 GLU
773 H773 8.75 46 19 H 157 GLU
774 H774 8.23521 45.9981 19.0087 H 151 GLU
775 H775 8.75 43 19 H 157 GLU
776 H776 8.25946 42.999 19.001 H 152 GLU
777 H777 8.75114 44.4812 18.9978 H 155 GLU
778 H778 7.75 43 19 H 157 GLU
779 H779 5.25 43.5 17.85 H 157 GLU
780 H780 7.75 46 19 H 157 GLU
781 H781 5.25 46.5 17.85 H 157 GLU
782 H782 5.24883 44.5076 17.8545 H 156 GLU
783 H783 5.25155 45.5076 17.8533 H 156 GLU
784 H784 -0.73222 0.728663 1.30498 H 0 GLU
785 H785 3.79962 0.737664 1.29185 H 1 GLU
786 H786 1.51538 5.8742 4.14282 H 80 GLU
787 H787 1.53238 12.5252 6.91656 H 54 GLU
788 H788 1.5017 10.0522 6.89862 H 79 GLU
789 H789 6.00584 12.7081 6.83637 H 55 GLU
790 H790 6.01676 10.1969 6.82672 H 71 GLU
791 H791 3.73481 18.014 9.5803 H 112 GLU
792 H792 3.75054 24.4678 12.4318 H 86 GLU
793 H793 3.77378 21.9713 12.4163 H 111 GLU
794 H794 8.26445 24.6945 12.3086 H 87 GLU
795 H795 8.25504 22.1894 12.3384 H 103 GLU
796 H796 6.01116 30.068 15.0642 H 144 GLU
797 H797 5.96297 36.6596 17.8371 H 118 GLU
798 H798 6.00819 34.153 17.8536 H 143 GLU
799 H799 10.4855 36.8283 17.737 H 119 GLU
800 H800 10.4893 34.3246 17.7657 H 135 GLU
801 H801 8.2741 42.4192 20.3844 H 152 GLU
@<TRIPOS>BOND
1 457 458 4
2 458 461 4
3 459 460 4
4 460 461 4
5 464 465 4
6 465 786 4
7 470 471 4
8 523 524 4
9 525 526 4
10 525 785 4
11 569 570 4
12 571 572 4
13 571 784 4
14 575 576 4
15 576 579 4
16 577 578 4
17 578 579 4
18 582 583 4
19 583 791 4
20 588 589 4
21 639 640 4
22 640 643 4
23 641 642 4
24 642 643 4
25 646 647 4
26 647 796 4
27 652 653 4
28 703 704 4
29 704 707 4
30 705 706 4
31 706 707 4
32 710 711 4
33 711 801 4
34 716 717 4
35 787 788 4
36 789 790 4
37 792 793 4
38 794 795 4
39 797 798 4
40 799 800 4
