#
#
#

#
#

@<TRIPOS>MOLECULE
Panda
801 194
SMALL
NO CHARGES


@<TRIPOS>ATOM
1 C1 0.255361 -0.00263304 -0.0140703 C 0 GLY
2 C2 0.26153 0.365232 0.639487 C 0 GLY
3 C3 0.267699 0.733097 1.29304 C 0 GLY
4 C4 -0.744558 -0.0070671 -0.00213638 C 0 GLY
5 C5 -0.73222 0.728663 1.30498 C 0 GLY
6 C6 2.74921 0.00934266 0.0205532 C 1 GLY
7 C7 2.7747 0.383702 0.669941 C 1 GLY
8 C8 2.8002 0.758061 1.31933 C 1 GLY
9 C9 3.74862 -0.011054 -0.00692936 C 1 GLY
10 C10 3.79962 0.737664 1.29185 C 1 GLY
11 C11 1.49558 1.28573 2.49395 C 2 GLY
12 C12 1.49118 1.57074 1.80023 C 2 GLY
13 C13 1.48679 1.85574 1.1065 C 2 GLY
14 C14 0.80909 2.15766 1.23483 C 2 GLY
15 C15 2.10509 2.25453 1.26642 C 2 GLY
16 C16 0.142141 2.4511 1.35961 C 2 GLY
17 C17 2.71421 2.64335 1.4223 C 2 GLY
18 C18 1.50437 0.715725 3.8814 C 2 GLY
19 H19 0.962126 1.15935 0.903784 H 3 GLY
20 H20 2.11646 1.24241 0.978542 H 4 GLY
21 H21 2.48899 1.31587 2.49626 H 5 GLY
22 C22 1.48257 4.98606 1.15117 C 6 GLY
23 C23 1.48762 4.34644 2.50795 C 6 GLY
24 C24 1.49266 3.70682 3.86474 C 6 GLY
25 O25 -0.508353 3.2968 -1.09321 O 7 GLY
26 O26 -0.466687 3.29229 -0.0940848 O 7 GLY
27 O27 3.50258 3.3031 -1.1042 O 8 GLY
28 O28 3.51415 3.30322 -0.104264 O 8 GLY
29 O29 -0.451478 4.00989 -0.300489 O 9 GLY
30 O30 0.548255 4.0183 -0.278975 O 9 GLY
31 O31 1.54799 4.02671 -0.257462 O 9 GLY
32 O32 2.54772 4.03513 -0.235948 O 9 GLY
33 O33 3.54746 4.04354 -0.214435 O 9 GLY
34 O34 -0.452722 4.49246 -0.431354 O 9 GLY
35 O35 0.547011 4.50087 -0.40984 O 9 GLY
36 O36 1.54675 4.50928 -0.388327 O 9 GLY
37 O37 2.54648 4.51769 -0.366813 O 9 GLY
38 O38 3.54621 4.52611 -0.3453 O 9 GLY
39 O39 -0.463583 4.38198 0.11653 O 9 GLY
40 O40 0.536151 4.39039 0.138043 O 9 GLY
41 O41 1.53588 4.3988 0.159557 O 9 GLY
42 O42 2.53562 4.40721 0.18107 O 9 GLY
43 O43 3.53535 4.41562 0.202584 O 9 GLY
44 O44 1.48867 3.28121 2.50527 O 10 GLY
45 H45 -1.75 0 0 H 11 GLY
46 H46 4.75 0 0 H 12 GLY
47 H47 -0.5 2.3 -1.1 H 13 GLY
48 H48 3.5 2.3 -1.1 H 14 GLY
49 H49 2.5 4.3 2.5 H 15 GLY
50 C50 3.75081 -3.23671 -1.31788 C 16 GLY
51 C51 3.74373 -2.49696 -0.0129997 C 16 GLY
52 C52 3.73666 -1.75721 1.29189 C 16 GLY
53 C53 6.75075 -3.2409 -1.29925 C 16 GLY
54 C54 6.74367 -2.50115 0.0056352 C 16 GLY
55 C55 6.7366 -1.76141 1.31052 C 16 GLY
56 H56 2.75 -2.5 0 H 17 GLY
57 H57 7.75 -2.5 0 H 18 GLY
58 O58 4.43816 -13.3866 1.59053 O 19 GLY
59 O59 5.62974 -13.3554 2.50113 O 19 GLY
60 C60 3.76697 -12.7252 -1.29942 C 20 GLY
61 C61 3.75449 -11.9894 0.00768703 C 20 GLY
62 C62 3.742 -11.2537 1.31479 C 20 GLY
63 C63 3.74727 -14.2078 -1.27416 C 21 GLY
64 C64 3.7508 -15.0038 -0.00284572 C 21 GLY
65 C65 3.75434 -15.7999 1.26847 C 21 GLY
66 O66 5.70094 -12.3692 2.42219 O 22 GLY
67 O67 6.49757 -12.4015 1.81859 O 22 GLY
68 O68 7.2942 -12.4337 1.21499 O 22 GLY
69 O69 8.09084 -12.466 0.611383 O 22 GLY
70 O70 8.88747 -12.4983 0.00778108 O 22 GLY
71 C71 10.0521 -13.5005 -0.00940526 C 23 GLY
72 C72 9.053 -13.4984 0.0320813 C 23 GLY
73 C73 4.77254 -13.5348 -0.454359 C 24 GLY
74 C74 3.54402 -13.5617 0.405886 C 24 GLY
75 C75 2.31551 -13.5887 1.26613 C 24 GLY
76 O76 3.25949 -13.4851 0.00194328 O 24 GLY
77 C77 6.74883 -13.4971 -1.13282 C 25 GLY
78 C78 6.74356 -12.4973 -1.15143 C 25 GLY
79 H79 10.05 -14.5 0 H 26 GLY
80 O80 8.25065 -6.523 0.041253 O 27 GLY
81 O81 9.74215 -6.58454 0.188355 O 27 GLY
82 C82 6.76746 -5.7069 -1.3116 C 28 GLY
83 C83 6.75048 -4.99352 0.00779554 C 28 GLY
84 C84 6.7335 -4.28014 1.32719 C 28 GLY
85 C85 6.7333 -8.74245 -1.31299 C 29 GLY
86 C86 6.75639 -8.01646 -0.000578497 C 29 GLY
87 C87 6.77949 -7.29048 1.31183 C 29 GLY
88 O88 9.86707 -5.60784 0.0516333 O 30 GLY
89 O89 10.8657 -5.58344 0.00571272 O 30 GLY
90 O90 11.8644 -5.55904 -0.0402079 O 30 GLY
91 O91 12.863 -5.53464 -0.0861285 O 30 GLY
92 O92 13.8617 -5.51024 -0.132049 O 30 GLY
93 C93 13.0451 -6.50008 -0.00649049 C 31 GLY
94 C94 14.044 -6.48939 -0.0514491 C 31 GLY
95 C95 6.81346 -7.15453 -1.33323 C 32 GLY
96 C96 6.75269 -6.48487 0.00760942 C 32 GLY
97 C97 6.69193 -5.81521 1.34845 C 32 GLY
98 O98 6.25318 -6.50191 -0.00651802 O 32 GLY
99 C99 9.74918 -6.49564 -1.15103 C 33 GLY
100 C100 9.74556 -5.49566 -1.15529 C 33 GLY
101 H101 13.05 -7.5 0 H 34 GLY
102 C102 -3.75249 -3.23549 -1.30594 C 35 GLY
103 C103 -3.74875 -2.50722 0.00539596 C 35 GLY
104 C104 -3.745 -1.77895 1.31673 C 35 GLY
105 C105 -0.752536 -3.22651 -1.3195 C 35 GLY
106 C106 -0.748792 -2.49823 -0.00815983 C 35 GLY
107 C107 -0.745048 -1.76996 1.30318 C 35 GLY
108 H108 -4.75 -2.5 0 H 36 GLY
109 H109 0.25 -2.5 0 H 37 GLY
110 O110 -2.73624 -13.7345 2.40154 O 38 GLY
111 O111 -1.51422 -13.7666 1.53227 O 38 GLY
112 C112 -0.728681 -12.7235 -1.30024 C 39 GLY
113 C113 -0.757794 -11.9972 0.0118757 C 39 GLY
114 C114 -0.786908 -11.2709 1.32399 C 39 GLY
115 C115 -0.733157 -14.2422 -1.27791 C 40 GLY
116 C116 -0.749946 -15.0039 0.0142417 C 40 GLY
117 C117 -0.766734 -15.7655 1.30639 C 40 GLY
118 O118 -6.04431 -12.5125 0.25563 O 41 GLY
119 O119 -5.22055 -12.5736 0.819278 O 41 GLY
120 O120 -4.3968 -12.6347 1.38293 O 41 GLY
121 O121 -3.57305 -12.6958 1.94658 O 41 GLY
122 O122 -2.74929 -12.7568 2.51022 O 41 GLY
123 C123 -6.06007 -13.5119 0.132661 C 42 GLY
124 C124 -7.05095 -13.5126 -0.00209521 C 42 GLY
125 C125 -1.74287 -13.5539 -0.495283 C 43 GLY
126 C126 -0.547552 -13.5482 0.410905 C 43 GLY
127 C127 0.647769 -13.5426 1.31709 C 43 GLY
128 O128 -0.247403 -13.4944 0.0146524 O 43 GLY
129 C129 -3.73946 -13.5038 -1.13981 C 44 GLY
130 C130 -3.75629 -12.504 -1.15112 C 44 GLY
131 H131 -7.05 -14.5 0 H 45 GLY
132 O132 -6.74486 -6.61306 0.20293 O 46 GLY
133 O133 -5.25675 -6.55341 0.0240994 O 46 GLY
134 C134 -3.74973 -5.70176 -1.30524 C 47 GLY
135 C135 -3.75932 -4.99278 0.0166009 C 47 GLY
136 C136 -3.76891 -4.2838 1.33844 C 47 GLY
137 C137 -3.75784 -8.76247 -1.27975 C 48 GLY
138 C138 -3.75173 -8.00064 0.0123693 C 48 GLY
139 C139 -3.74562 -7.23881 1.30449 C 48 GLY
140 O140 -10.8755 -5.53074 0.0986535 O 49 GLY
141 O141 -9.876 -5.55153 0.122744 O 49 GLY
142 O142 -8.87651 -5.57232 0.146835 O 49 GLY
143 O143 -7.87702 -5.5931 0.170925 O 49 GLY
144 O144 -6.87752 -5.61389 0.195016 O 49 GLY
145 C145 -11.0422 -6.51264 0.0437326 C 50 GLY
146 C146 -10.0428 -6.50232 0.00969113 C 50 GLY
147 C147 -3.7454 -7.25097 -1.30925 C 51 GLY
148 C148 -3.74936 -6.50959 -0.00528395 C 51 GLY
149 C149 -3.75333 -5.7682 1.29868 C 51 GLY
150 O150 -3.24938 -6.51231 -0.0022161 O 51 GLY
151 C151 -6.75246 -6.5037 -1.1343 C 52 GLY
152 C152 -6.75007 -5.50406 -1.16094 C 52 GLY
153 H153 -10.05 -7.5 0 H 53 GLY
154 C154 2.50578 11.9975 5.49386 C 54 GLY
155 C155 2.51899 12.2619 6.19558 C 54 GLY
156 C156 2.53219 12.5263 6.89731 C 54 GLY
157 C157 1.50597 11.9964 5.51311 C 54 GLY
158 C158 1.53238 12.5252 6.91656 C 54 GLY
159 C159 5.0035 12.01 5.51053 C 55 GLY
160 C160 5.00468 12.3573 6.17524 C 55 GLY
161 C161 5.00585 12.7047 6.83995 C 55 GLY
162 C162 6.00349 12.0134 5.50695 C 55 GLY
163 C163 6.00584 12.7081 6.83637 C 55 GLY
164 C164 3.76036 13.2966 8.01244 C 56 GLY
165 C165 3.72573 13.5335 7.3017 C 56 GLY
166 C166 3.69109 13.7705 6.59096 C 56 GLY
167 C167 3.09247 14.1941 6.76137 C 56 GLY
168 C168 4.38155 14.0638 6.65511 C 56 GLY
169 C169 2.50256 14.6074 6.92789 C 56 GLY
170 C170 5.06088 14.3487 6.717 C 56 GLY
171 C171 3.82962 12.8227 9.43393 C 56 GLY
172 H172 3.05851 13.1262 6.4775 H 57 GLY
173 H173 4.22087 13.0562 6.51506 H 58 GLY
174 H174 4.75163 13.3043 8.00227 H 59 GLY
175 C175 3.76077 16.8281 6.59387 C 60 GLY
176 C176 3.7519 16.3235 8.00642 C 60 GLY
177 C177 3.74303 15.8189 9.41897 C 60 GLY
178 O178 1.75035 15.2915 4.40161 O 61 GLY
179 O179 2.74746 15.287 4.47749 O 61 GLY
180 O180 5.74303 15.311 4.40189 O 62 GLY
181 O181 6.74281 15.3149 4.3814 O 62 GLY
182 O182 2.75909 16.0455 4.53317 O 63 GLY
183 O183 3.75881 16.0504 4.51017 O 63 GLY
184 O184 4.75854 16.0552 4.48718 O 63 GLY
185 O185 5.75826 16.06 4.46418 O 63 GLY
186 O186 6.75799 16.0649 4.44118 O 63 GLY
187 O187 2.75704 16.5453 4.54882 O 63 GLY
188 O188 3.75676 16.5501 4.52583 O 63 GLY
189 O189 4.75649 16.5549 4.50283 O 63 GLY
190 O190 5.75621 16.5598 4.47983 O 63 GLY
191 O191 6.75593 16.5646 4.45684 O 63 GLY
192 O192 2.76963 16.2798 5.04062 O 63 GLY
193 O193 3.76936 16.2846 5.01762 O 63 GLY
194 O194 4.76908 16.2895 4.99463 O 63 GLY
195 O195 5.7688 16.2943 4.97163 O 63 GLY
196 O196 6.76853 16.2991 4.94863 O 63 GLY
197 O197 3.749 15.2828 8.00506 O 64 GLY
198 H198 0.5 12 5.5 H 65 GLY
199 H199 7 12 5.5 H 66 GLY
200 H200 1.75 14.3 4.4 H 67 GLY
201 H201 5.75 14.3 4.4 H 68 GLY
202 H202 4.75 16.3 8 H 69 GLY
203 O203 7.41199 8.33824 5.83645 O 70 GLY
204 O204 8.78824 8.30261 6.43199 O 70 GLY
205 C205 6.01651 8.81481 4.16405 C 71 GLY
206 C206 6.01663 9.50586 5.49539 C 71 GLY
207 C207 6.01676 10.1969 6.82672 C 71 GLY
208 C208 5.95522 5.78485 4.16037 C 72 GLY
209 C209 6.0029 6.49498 5.48077 C 72 GLY
210 C210 6.05058 7.20511 6.80116 C 72 GLY
211 O211 8.75803 9.29982 6.36168 O 73 GLY
212 O212 9.63889 9.2207 5.89496 O 73 GLY
213 O213 10.5198 9.14159 5.42825 O 73 GLY
214 O214 11.4006 9.06248 4.96153 O 73 GLY
215 O215 12.2815 8.98337 4.49481 O 73 GLY
216 C216 12.2949 8.00302 5.50016 C 74 GLY
217 C217 12.355 7.99659 4.50199 C 74 GLY
218 C218 6.38245 7.42019 4.32219 C 75 GLY
219 C219 5.98213 8.00755 5.64308 C 75 GLY
220 C220 5.58181 8.5949 6.96397 C 75 GLY
221 O221 5.50316 8.0037 5.49963 O 75 GLY
222 C222 9.01112 7.99813 4.33849 C 76 GLY
223 C223 9.00218 8.99799 4.35291 C 76 GLY
224 H224 12.3 7 5.5 H 77 GLY
225 O225 -0.866434 8.34872 7.44357 O 78 GLY
226 O226 0.410999 8.38439 6.65815 O 78 GLY
227 C227 1.5072 8.95406 4.10685 C 79 GLY
228 C228 1.50445 9.50314 5.50274 C 79 GLY
229 C229 1.5017 10.0522 6.89862 C 79 GLY
230 C230 1.51538 5.8742 4.14282 C 80 GLY
231 C231 1.50344 6.50681 5.50284 C 80 GLY
232 C232 1.49151 7.13943 6.86286 C 80 GLY
233 O233 -4.64972 9.01112 6.46074 O 81 GLY
234 O234 -3.69054 9.09334 6.73135 O 81 GLY
235 O235 -2.73137 9.17555 7.00196 O 81 GLY
236 O236 -1.7722 9.25777 7.27258 O 81 GLY
237 O237 -0.813033 9.33998 7.54319 O 81 GLY
238 C238 -4.69384 8.00573 6.48813 C 82 GLY
239 C239 -4.79073 8.00761 5.49284 C 82 GLY
240 C240 0.688528 7.76421 4.64125 C 83 GLY
241 C241 1.59485 8.10274 5.78753 C 83 GLY
242 C242 2.50118 8.44126 6.93382 C 83 GLY
243 O243 1.99324 8.01175 5.49942 O 83 GLY
244 C244 -1.50617 7.99378 4.35259 C 84 GLY
245 C245 -1.48959 8.99362 4.34525 C 84 GLY
246 H246 -4.8 7 5.5 H 85 GLY
247 C247 4.74694 23.9914 11.0069 C 86 GLY
248 C248 4.74872 24.2249 11.7196 C 86 GLY
249 C249 4.7505 24.4584 12.4323 C 86 GLY
250 C250 3.74699 24.0007 11.0063 C 86 GLY
251 C251 3.75054 24.4678 12.4318 C 86 GLY
252 C252 7.24771 23.9953 10.9943 C 87 GLY
253 C253 7.25612 24.346 11.6572 C 87 GLY
254 C254 7.26452 24.6966 12.3201 C 87 GLY
255 C255 8.24764 23.9932 10.9827 C 87 GLY
256 C256 8.26445 24.6945 12.3086 C 87 GLY
257 C257 5.99323 25.2976 13.5031 C 88 GLY
258 C258 5.93356 25.4954 12.7821 C 88 GLY
259 C259 5.87389 25.6932 12.0611 C 88 GLY
260 C260 5.21628 26.0293 12.2077 C 88 GLY
261 C261 6.51172 26.0893 12.117 C 88 GLY
262 C262 4.5689 26.3562 12.351 C 88 GLY
263 C263 7.13985 26.4754 12.1709 C 88 GLY
264 C264 6.11257 24.902 14.945 C 88 GLY
265 H265 5.44049 24.904 12.0531 H 89 GLY
266 H266 6.50453 25.0523 11.9974 H 90 GLY
267 H267 6.99544 25.2984 13.4987 H 91 GLY
268 C268 6.00878 28.7256 12.0593 C 92 GLY
269 C269 6.00219 28.3044 13.4989 C 92 GLY
270 C270 5.99561 27.8831 14.9385 C 92 GLY
271 O271 4.00502 27.3019 9.88981 O 93 GLY
272 O272 4.01373 27.2989 8.88985 O 93 GLY
273 O273 7.99604 27.3043 9.90643 O 94 GLY
274 O274 8.052 27.3094 8.90801 O 94 GLY
275 O275 4.06588 28.0406 8.90517 O 95 GLY
276 O276 5.06587 28.0436 8.90175 O 95 GLY
277 O277 6.06586 28.0466 8.89833 O 95 GLY
278 O278 7.06585 28.0496 8.89492 O 95 GLY
279 O279 8.06584 28.0526 8.8915 O 95 GLY
280 O280 4.06443 28.5403 8.92038 O 95 GLY
281 O281 5.06442 28.5433 8.91697 O 95 GLY
282 O282 6.06441 28.5463 8.91355 O 95 GLY
283 O283 7.0644 28.5493 8.91013 O 95 GLY
284 O284 8.06439 28.5523 8.90672 O 95 GLY
285 O285 4.06691 28.2752 9.41254 O 95 GLY
286 O286 5.0669 28.2782 9.40912 O 95 GLY
287 O287 6.06689 28.2812 9.40571 O 95 GLY
288 O288 7.06688 28.2842 9.40229 O 95 GLY
289 O289 8.06687 28.2872 9.39887 O 95 GLY
290 O290 5.99667 27.2741 13.4844 O 96 GLY
291 H291 2.75 24 11 H 97 GLY
292 H292 9.25 24 11 H 98 GLY
293 H293 4 26.3 9.9 H 99 GLY
294 H294 8 26.3 9.9 H 100 GLY
295 H295 7 28.3 13.5 H 101 GLY
296 O296 9.29858 19.96 12.1416 O 102 GLY
297 O297 10.3404 19.9468 13.2207 O 102 GLY
298 C298 8.24896 20.8209 9.66873 C 103 GLY
299 C299 8.252 21.5052 11.0036 C 103 GLY
300 C300 8.25504 22.1894 12.3384 C 103 GLY
301 C301 8.24395 17.8208 9.66254 C 104 GLY
302 C302 8.25025 18.4966 11.0017 C 104 GLY
303 C303 8.25655 19.1723 12.3408 C 104 GLY
304 O304 10.3285 20.9439 13.2452 O 105 GLY
305 O305 11.1353 20.9612 12.6547 O 105 GLY
306 O306 11.9422 20.9784 12.0642 O 105 GLY
307 O307 12.749 20.9957 11.4736 O 105 GLY
308 O308 13.5558 21.0129 10.8831 O 105 GLY
309 C309 14.5468 19.9987 10.9928 C 106 GLY
310 C310 13.5578 19.9964 10.8444 C 106 GLY
311 C311 8.98754 19.5764 10.1279 C 107 GLY
312 C312 8.13967 20.1333 11.2329 C 107 GLY
313 C313 7.2918 20.6902 12.3379 C 107 GLY
314 O314 7.72741 19.9921 10.9877 O 107 GLY
315 C315 11.2694 20.0038 9.84528 C 108 GLY
316 C316 11.2554 21.0037 9.84332 C 108 GLY
317 H317 14.55 19 11 H 109 GLY
318 O318 1.65491 20.362 13.2482 O 110 GLY
319 O319 2.81246 20.4171 12.2958 O 110 GLY
320 C320 3.74997 21.0061 9.57591 C 111 GLY
321 C321 3.76188 21.4887 10.9961 C 111 GLY
322 C322 3.77378 21.9713 12.4163 C 111 GLY
323 C323 3.73481 18.014 9.5803 C 112 GLY
324 C324 3.75073 18.4955 11.0008 C 112 GLY
325 C325 3.76665 18.977 12.4214 C 112 GLY
326 O326 -1.5879 20.9804 10.8275 O 113 GLY
327 O327 -0.786582 21.0754 11.4182 O 113 GLY
328 O328 0.0147368 21.1704 12.0088 O 113 GLY
329 O329 0.816056 21.2654 12.5995 O 113 GLY
330 O330 1.61738 21.3604 13.1901 O 113 GLY
331 C331 -1.55537 20.0143 11.0263 C 114 GLY
332 C332 -2.55494 20.0098 10.9971 C 114 GLY
333 C333 2.86455 19.9414 10.2352 C 115 GLY
334 C334 3.88769 19.9798 11.3314 C 115 GLY
335 C335 4.91083 20.0182 12.4276 C 115 GLY
336 O336 4.25248 20.0018 10.9902 O 115 GLY
337 C337 0.751655 19.9964 9.84759 C 116 GLY
338 C338 0.748972 20.9964 9.85803 C 116 GLY
339 H339 -2.55 19 11 H 117 GLY
340 C340 6.99926 36.0057 16.5147 C 118 GLY
341 C341 6.98095 36.3413 17.1852 C 118 GLY
342 C342 6.96265 36.6769 17.8557 C 118 GLY
343 C343 5.99958 35.9884 16.4961 C 118 GLY
344 C344 5.96297 36.6596 17.8371 C 118 GLY
345 C345 9.49758 35.9891 16.4841 C 119 GLY
346 C346 9.49158 36.4041 17.1088 C 119 GLY
347 C347 9.48558 36.819 17.7336 C 119 GLY
348 C348 10.4975 35.9983 16.4876 C 119 GLY
349 C349 10.4855 36.8283 17.737 C 119 GLY
350 C350 8.24851 37.3016 19.0098 C 120 GLY
351 C351 8.22374 37.5935 18.3194 C 120 GLY
352 C352 8.19897 37.8854 17.629 C 120 GLY
353 C353 7.53721 38.2071 17.7887 C 120 GLY
354 C354 8.8358 38.2631 17.7658 C 120 GLY
355 C355 6.88577 38.52 17.9444 C 120 GLY
356 C356 9.46298 38.6311 17.8989 C 120 GLY
357 C357 8.29806 36.7177 20.3906 C 120 GLY
358 H358 7.63094 37.1792 17.5205 H 121 GLY
359 H359 8.67533 37.1209 17.513 H 122 GLY
360 H360 9.2481 37.3028 19.0068 H 123 GLY
361 C361 8.25301 40.9268 17.6306 C 124 GLY
362 C362 8.24563 40.3208 19.0027 C 124 GLY
363 C363 8.23825 39.7148 20.3748 C 124 GLY
364 O364 6.25246 39.3101 15.3873 O 125 GLY
365 O365 5.26495 39.3068 15.2298 O 125 GLY
366 O366 10.246 39.2914 15.3926 O 126 GLY
367 O367 9.24763 39.2842 15.4493 O 126 GLY
368 O368 5.24446 40.0515 15.17 O 127 GLY
369 O369 6.24329 40.0417 15.2174 O 127 GLY
370 O370 7.24212 40.0319 15.2648 O 127 GLY
371 O371 8.24095 40.0221 15.3121 O 127 GLY
372 O372 9.23978 40.0123 15.3595 O 127 GLY
373 O373 5.25106 40.5502 15.1341 O 127 GLY
374 O374 6.24989 40.5404 15.1815 O 127 GLY
375 O375 7.24872 40.5305 15.2288 O 127 GLY
376 O376 8.24755 40.5207 15.2762 O 127 GLY
377 O377 9.24638 40.5109 15.3235 O 127 GLY
378 O378 5.2245 40.3371 15.6502 O 127 GLY
379 O379 6.22333 40.3272 15.6976 O 127 GLY
380 O380 7.22216 40.3174 15.7449 O 127 GLY
381 O381 8.22099 40.3076 15.7923 O 127 GLY
382 O382 9.21982 40.2978 15.8396 O 127 GLY
383 O383 8.25902 39.2728 19.0015 O 128 GLY
384 H384 5 36 16.5 H 129 GLY
385 H385 11.5 36 16.5 H 130 GLY
386 H386 6.25 38.3 15.4 H 131 GLY
387 H387 10.25 38.3 15.4 H 132 GLY
388 H388 9.25 40.3 19 H 133 GLY
389 O389 11.809 31.9918 17.3632 O 134 GLY
390 O390 13.0864 31.9766 18.1493 O 134 GLY
391 C391 10.5094 32.7031 15.2418 C 135 GLY
392 C392 10.4994 33.5138 16.5038 C 135 GLY
393 C393 10.4893 34.3246 17.7657 C 135 GLY
394 C394 10.5038 29.7852 15.1848 C 136 GLY
395 C395 10.4837 30.5001 16.5033 C 136 GLY
396 C396 10.4635 31.2149 17.8219 C 136 GLY
397 O397 12.9962 32.9602 18.2256 O 137 GLY
398 O398 13.9815 32.9673 18.0546 O 137 GLY
399 O399 14.9667 32.9744 17.8836 O 137 GLY
400 O400 15.952 32.9815 17.7127 O 137 GLY
401 O401 16.9372 32.9887 17.5417 O 137 GLY
402 C402 16.7885 31.9931 16.4996 C 138 GLY
403 C403 16.8268 31.9884 17.4988 C 138 GLY
404 C404 11.046 31.4453 15.4228 C 139 GLY
405 C405 10.48 32.0464 16.6751 C 139 GLY
406 C406 9.9139 32.6475 17.9274 C 139 GLY
407 O407 10.0173 31.9829 16.4964 O 139 GLY
408 C408 13.5047 31.9958 15.3543 C 140 GLY
409 C409 13.4928 32.9958 15.3559 C 140 GLY
410 H410 16.8 31 16.5 H 141 GLY
411 O411 3.2464 32.2138 17.7682 O 142 GLY
412 O412 4.65739 32.2125 17.2592 O 142 GLY
413 C413 5.9856 32.8516 15.1507 C 143 GLY
414 C414 5.9969 33.5023 16.5021 C 143 GLY
415 C415 6.00819 34.153 17.8536 C 143 GLY
416 C416 6.01116 30.068 15.0642 C 144 GLY
417 C417 6.00253 30.5034 16.4996 C 144 GLY
418 C418 5.99389 30.9387 17.935 C 144 GLY
419 O419 -0.210707 33.0142 15.5237 O 145 GLY
420 O420 0.632028 33.0588 16.0602 O 145 GLY
421 O421 1.47476 33.1034 16.5967 O 145 GLY
422 O422 2.3175 33.148 17.1332 O 145 GLY
423 O423 3.16023 33.1926 17.6697 O 145 GLY
424 C424 -0.258708 32.0276 15.4995 C 146 GLY
425 C425 -0.291801 32.014 16.4988 C 146 GLY
426 C426 5.42101 31.4766 15.4553 C 147 GLY
427 C427 6.03918 32.0163 16.711 C 147 GLY
428 C428 6.65736 32.5559 17.9666 C 147 GLY
429 O429 6.49062 31.9974 16.4969 O 147 GLY
430 C430 3.01624 31.9882 15.3387 C 148 GLY
431 C431 3.0021 32.9881 15.3373 C 148 GLY
432 H432 -0.3 31 16.5 H 149 GLY
433 O433 5.42681 44.7567 19.9679 O 150 GLY
434 O434 6.87153 44.8122 19.5683 O 150 GLY
435 C435 8.24963 46.7337 17.7015 C 151 GLY
436 C436 8.23521 45.9981 19.0087 C 151 GLY
437 C437 8.22078 45.2626 20.3159 C 151 GLY
438 C438 8.24482 43.5787 17.6177 C 152 GLY
439 C439 8.25946 42.999 19.001 C 152 GLY
440 C440 8.2741 42.4192 20.3844 C 152 GLY
441 O441 1.88396 45.5037 18.0504 O 153 GLY
442 O442 2.75813 45.5677 18.5318 O 153 GLY
443 O443 3.63229 45.6317 19.0132 O 153 GLY
444 O444 4.50646 45.6956 19.4946 O 153 GLY
445 O445 5.38062 45.7596 19.976 O 153 GLY
446 C446 1.86408 44.4884 17.9954 C 154 GLY
447 C447 1.96314 44.4948 18.9905 C 154 GLY
448 C448 7.93276 45.0456 17.7683 C 155 GLY
449 C449 8.26367 44.4497 19.1045 C 155 GLY
450 C450 8.59458 43.8538 20.4407 C 155 GLY
451 O451 8.75114 44.4812 18.9978 O 155 GLY
452 C452 5.24883 44.5076 17.8545 C 156 GLY
453 C453 5.25155 45.5076 17.8533 C 156 GLY
454 H454 1.95 43.5 19 H 157 GLY
455 H455 0.255361 -0.00263304 -0.0140703 H 0 GLY
456 H456 2.74921 0.00934266 0.0205532 H 1 GLY
457 H457 0.267699 0.733097 1.29304 H 0 GLY
458 H458 0.962126 1.15935 0.903784 H 3 GLY
459 H459 2.8002 0.758061 1.31933 H 1 GLY
460 H460 2.11646 1.24241 0.978542 H 4 GLY
461 H461 1.48679 1.85574 1.1065 H 2 GLY
462 H462 1.49558 1.28573 2.49395 H 2 GLY
463 H463 2.48899 1.31587 2.49626 H 5 GLY
464 H464 1.50437 0.715725 3.8814 H 2 GLY
465 H465 1.49266 3.70682 3.86474 H 6 GLY
466 H466 -0.466687 3.29229 -0.0940848 H 7 GLY
467 H467 -0.451478 4.00989 -0.300489 H 9 GLY
468 H468 3.51415 3.30322 -0.104264 H 8 GLY
469 H469 3.54746 4.04354 -0.214435 H 9 GLY
470 H470 1.48762 4.34644 2.50795 H 6 GLY
471 H471 1.48867 3.28121 2.50527 H 10 GLY
472 H472 -1.75 0 0 H 11 GLY
473 H473 -0.744558 -0.0070671 -0.00213638 H 0 GLY
474 H474 4.75 0 0 H 12 GLY
475 H475 3.74862 -0.011054 -0.00692936 H 1 GLY
476 H476 -0.5 2.3 -1.1 H 13 GLY
477 H477 -0.508353 3.2968 -1.09321 H 7 GLY
478 H478 3.5 2.3 -1.1 H 14 GLY
479 H479 3.50258 3.3031 -1.1042 H 8 GLY
480 H480 2.5 4.3 2.5 H 15 GLY
481 H481 3.74373 -2.49696 -0.0129997 H 16 GLY
482 H482 2.75 -2.5 0 H 17 GLY
483 H483 6.74367 -2.50115 0.0056352 H 16 GLY
484 H484 7.75 -2.5 0 H 18 GLY
485 H485 5.62974 -13.3554 2.50113 H 19 GLY
486 H486 5.70094 -12.3692 2.42219 H 22 GLY
487 H487 8.88747 -12.4983 0.00778108 H 22 GLY
488 H488 9.053 -13.4984 0.0320813 H 23 GLY
489 H489 4.43816 -13.3866 1.59053 H 19 GLY
490 H490 3.54402 -13.5617 0.405886 H 24 GLY
491 H491 10.05 -14.5 0 H 26 GLY
492 H492 10.0521 -13.5005 -0.00940526 H 23 GLY
493 H493 3.25 -12 0 H 26 GLY
494 H494 3.75449 -11.9894 0.00768703 H 20 GLY
495 H495 3.25 -15 0 H 26 GLY
496 H496 3.7508 -15.0038 -0.00284572 H 21 GLY
497 H497 3.25949 -13.4851 0.00194328 H 24 GLY
498 H498 4.25 -15 0 H 26 GLY
499 H499 6.75 -14.5 -1.15 H 26 GLY
500 H500 4.25 -12 0 H 26 GLY
501 H501 6.75 -11.5 -1.15 H 26 GLY
502 H502 6.74883 -13.4971 -1.13282 H 25 GLY
503 H503 6.74356 -12.4973 -1.15143 H 25 GLY
504 H504 9.74215 -6.58454 0.188355 H 27 GLY
505 H505 9.86707 -5.60784 0.0516333 H 30 GLY
506 H506 13.8617 -5.51024 -0.132049 H 30 GLY
507 H507 14.044 -6.48939 -0.0514491 H 31 GLY
508 H508 8.25065 -6.523 0.041253 H 27 GLY
509 H509 6.75269 -6.48487 0.00760942 H 32 GLY
510 H510 13.05 -7.5 0 H 34 GLY
511 H511 13.0451 -6.50008 -0.00649049 H 31 GLY
512 H512 6.25 -5 0 H 34 GLY
513 H513 6.75048 -4.99352 0.00779554 H 28 GLY
514 H514 6.25 -8 0 H 34 GLY
515 H515 6.75639 -8.01646 -0.000578497 H 29 GLY
516 H516 6.25318 -6.50191 -0.00651802 H 32 GLY
517 H517 7.25 -8 0 H 34 GLY
518 H518 9.75 -7.5 -1.15 H 34 GLY
519 H519 7.25 -5 0 H 34 GLY
520 H520 9.75 -4.5 -1.15 H 34 GLY
521 H521 9.74918 -6.49564 -1.15103 H 33 GLY
522 H522 9.74556 -5.49566 -1.15529 H 33 GLY
523 H523 6.7366 -1.76141 1.31052 H 16 GLY
524 H524 6.7335 -4.28014 1.32719 H 28 GLY
525 H525 3.73666 -1.75721 1.29189 H 16 GLY
526 H526 3.742 -11.2537 1.31479 H 20 GLY
527 H527 -3.74875 -2.50722 0.00539596 H 35 GLY
528 H528 -4.75 -2.5 0 H 36 GLY
529 H529 -0.748792 -2.49823 -0.00815983 H 35 GLY
530 H530 0.25 -2.5 0 H 37 GLY
531 H531 -2.73624 -13.7345 2.40154 H 38 GLY
532 H532 -2.74929 -12.7568 2.51022 H 41 GLY
533 H533 -6.04431 -12.5125 0.25563 H 41 GLY
534 H534 -6.06007 -13.5119 0.132661 H 42 GLY
535 H535 -1.51422 -13.7666 1.53227 H 38 GLY
536 H536 -0.547552 -13.5482 0.410905 H 43 GLY
537 H537 -7.05 -14.5 0 H 45 GLY
538 H538 -7.05095 -13.5126 -0.00209521 H 42 GLY
539 H539 -0.25 -12 0 H 45 GLY
540 H540 -0.757794 -11.9972 0.0118757 H 39 GLY
541 H541 -0.25 -15 0 H 45 GLY
542 H542 -0.749946 -15.0039 0.0142417 H 40 GLY
543 H543 -0.247403 -13.4944 0.0146524 H 43 GLY
544 H544 -1.25 -15 0 H 45 GLY
545 H545 -3.75 -14.5 -1.15 H 45 GLY
546 H546 -1.25 -12 0 H 45 GLY
547 H547 -3.75 -11.5 -1.15 H 45 GLY
548 H548 -3.73946 -13.5038 -1.13981 H 44 GLY
549 H549 -3.75629 -12.504 -1.15112 H 44 GLY
550 H550 -6.74486 -6.61306 0.20293 H 46 GLY
551 H551 -6.87752 -5.61389 0.195016 H 49 GLY
552 H552 -10.8755 -5.53074 0.0986535 H 49 GLY
553 H553 -11.0422 -6.51264 0.0437326 H 50 GLY
554 H554 -5.25675 -6.55341 0.0240994 H 46 GLY
555 H555 -3.74936 -6.50959 -0.00528395 H 51 GLY
556 H556 -10.05 -7.5 0 H 53 GLY
557 H557 -10.0428 -6.50232 0.00969113 H 50 GLY
558 H558 -3.25 -5 0 H 53 GLY
559 H559 -3.75932 -4.99278 0.0166009 H 47 GLY
560 H560 -3.25 -8 0 H 53 GLY
561 H561 -3.75173 -8.00064 0.0123693 H 48 GLY
562 H562 -3.24938 -6.51231 -0.0022161 H 51 GLY
563 H563 -4.25 -8 0 H 53 GLY
564 H564 -6.75 -7.5 -1.15 H 53 GLY
565 H565 -4.25 -5 0 H 53 GLY
566 H566 -6.75 -4.5 -1.15 H 53 GLY
567 H567 -6.75246 -6.5037 -1.1343 H 52 GLY
568 H568 -6.75007 -5.50406 -1.16094 H 52 GLY
569 H569 -3.745 -1.77895 1.31673 H 35 GLY
570 H570 -3.76891 -4.2838 1.33844 H 47 GLY
571 H571 -0.745048 -1.76996 1.30318 H 35 GLY
572 H572 -0.786908 -11.2709 1.32399 H 39 GLY
573 H573 2.50578 11.9975 5.49386 H 54 GLY
574 H574 5.0035 12.01 5.51053 H 55 GLY
575 H575 2.53219 12.5263 6.89731 H 54 GLY
576 H576 3.05851 13.1262 6.4775 H 57 GLY
577 H577 5.00585 12.7047 6.83995 H 55 GLY
578 H578 4.22087 13.0562 6.51506 H 58 GLY
579 H579 3.69109 13.7705 6.59096 H 56 GLY
580 H580 3.76036 13.2966 8.01244 H 56 GLY
581 H581 4.75163 13.3043 8.00227 H 59 GLY
582 H582 3.82962 12.8227 9.43393 H 56 GLY
583 H583 3.74303 15.8189 9.41897 H 60 GLY
584 H584 2.74746 15.287 4.47749 H 61 GLY
585 H585 2.75909 16.0455 4.53317 H 63 GLY
586 H586 6.74281 15.3149 4.3814 H 62 GLY
587 H587 6.75799 16.0649 4.44118 H 63 GLY
588 H588 3.7519 16.3235 8.00642 H 60 GLY
589 H589 3.749 15.2828 8.00506 H 64 GLY
590 H590 0.5 12 5.5 H 65 GLY
591 H591 1.50597 11.9964 5.51311 H 54 GLY
592 H592 7 12 5.5 H 66 GLY
593 H593 6.00349 12.0134 5.50695 H 55 GLY
594 H594 1.75 14.3 4.4 H 67 GLY
595 H595 1.75035 15.2915 4.40161 H 61 GLY
596 H596 5.75 14.3 4.4 H 68 GLY
597 H597 5.74303 15.311 4.40189 H 62 GLY
598 H598 4.75 16.3 8 H 69 GLY
599 H599 8.78824 8.30261 6.43199 H 70 GLY
600 H600 8.75803 9.29982 6.36168 H 73 GLY
601 H601 12.2815 8.98337 4.49481 H 73 GLY
602 H602 12.355 7.99659 4.50199 H 74 GLY
603 H603 7.41199 8.33824 5.83645 H 70 GLY
604 H604 5.98213 8.00755 5.64308 H 75 GLY
605 H605 12.3 7 5.5 H 77 GLY
606 H606 12.2949 8.00302 5.50016 H 74 GLY
607 H607 5.5 9.5 5.5 H 77 GLY
608 H608 6.01663 9.50586 5.49539 H 71 GLY
609 H609 5.5 6.5 5.5 H 77 GLY
610 H610 6.0029 6.49498 5.48077 H 72 GLY
611 H611 5.50316 8.0037 5.49963 H 75 GLY
612 H612 6.5 6.5 5.5 H 77 GLY
613 H613 9 7 4.35 H 77 GLY
614 H614 6.5 9.5 5.5 H 77 GLY
615 H615 9 10 4.35 H 77 GLY
616 H616 9.01112 7.99813 4.33849 H 76 GLY
617 H617 9.00218 8.99799 4.35291 H 76 GLY
618 H618 -0.866434 8.34872 7.44357 H 78 GLY
619 H619 -0.813033 9.33998 7.54319 H 81 GLY
620 H620 -4.64972 9.01112 6.46074 H 81 GLY
621 H621 -4.69384 8.00573 6.48813 H 82 GLY
622 H622 0.410999 8.38439 6.65815 H 78 GLY
623 H623 1.59485 8.10274 5.78753 H 83 GLY
624 H624 -4.8 7 5.5 H 85 GLY
625 H625 -4.79073 8.00761 5.49284 H 82 GLY
626 H626 2 9.5 5.5 H 85 GLY
627 H627 1.50445 9.50314 5.50274 H 79 GLY
628 H628 2 6.5 5.5 H 85 GLY
629 H629 1.50344 6.50681 5.50284 H 80 GLY
630 H630 1.99324 8.01175 5.49942 H 83 GLY
631 H631 1 6.5 5.5 H 85 GLY
632 H632 -1.5 7 4.35 H 85 GLY
633 H633 1 9.5 5.5 H 85 GLY
634 H634 -1.5 10 4.35 H 85 GLY
635 H635 -1.50617 7.99378 4.35259 H 84 GLY
636 H636 -1.48959 8.99362 4.34525 H 84 GLY
637 H637 4.74694 23.9914 11.0069 H 86 GLY
638 H638 7.24771 23.9953 10.9943 H 87 GLY
639 H639 4.7505 24.4584 12.4323 H 86 GLY
640 H640 5.44049 24.904 12.0531 H 89 GLY
641 H641 7.26452 24.6966 12.3201 H 87 GLY
642 H642 6.50453 25.0523 11.9974 H 90 GLY
643 H643 5.87389 25.6932 12.0611 H 88 GLY
644 H644 5.99323 25.2976 13.5031 H 88 GLY
645 H645 6.99544 25.2984 13.4987 H 91 GLY
646 H646 6.11257 24.902 14.945 H 88 GLY
647 H647 5.99561 27.8831 14.9385 H 92 GLY
648 H648 4.01373 27.2989 8.88985 H 93 GLY
649 H649 4.06588 28.0406 8.90517 H 95 GLY
650 H650 8.052 27.3094 8.90801 H 94 GLY
651 H651 8.06584 28.0526 8.8915 H 95 GLY
652 H652 6.00219 28.3044 13.4989 H 92 GLY
653 H653 5.99667 27.2741 13.4844 H 96 GLY
654 H654 2.75 24 11 H 97 GLY
655 H655 3.74699 24.0007 11.0063 H 86 GLY
656 H656 9.25 24 11 H 98 GLY
657 H657 8.24764 23.9932 10.9827 H 87 GLY
658 H658 4 26.3 9.9 H 99 GLY
659 H659 4.00502 27.3019 9.88981 H 93 GLY
660 H660 8 26.3 9.9 H 100 GLY
661 H661 7.99604 27.3043 9.90643 H 94 GLY
662 H662 7 28.3 13.5 H 101 GLY
663 H663 10.3404 19.9468 13.2207 H 102 GLY
664 H664 10.3285 20.9439 13.2452 H 105 GLY
665 H665 13.5558 21.0129 10.8831 H 105 GLY
666 H666 13.5578 19.9964 10.8444 H 106 GLY
667 H667 9.29858 19.96 12.1416 H 102 GLY
668 H668 8.13967 20.1333 11.2329 H 107 GLY
669 H669 14.55 19 11 H 109 GLY
670 H670 14.5468 19.9987 10.9928 H 106 GLY
671 H671 7.75 21.5 11 H 109 GLY
672 H672 8.252 21.5052 11.0036 H 103 GLY
673 H673 7.75 18.5 11 H 109 GLY
674 H674 8.25025 18.4966 11.0017 H 104 GLY
675 H675 7.72741 19.9921 10.9877 H 107 GLY
676 H676 8.75 18.5 11 H 109 GLY
677 H677 11.25 19 9.85 H 109 GLY
678 H678 8.75 21.5 11 H 109 GLY
679 H679 11.25 22 9.85 H 109 GLY
680 H680 11.2694 20.0038 9.84528 H 108 GLY
681 H681 11.2554 21.0037 9.84332 H 108 GLY
682 H682 1.65491 20.362 13.2482 H 110 GLY
683 H683 1.61738 21.3604 13.1901 H 113 GLY
684 H684 -1.5879 20.9804 10.8275 H 113 GLY
685 H685 -1.55537 20.0143 11.0263 H 114 GLY
686 H686 2.81246 20.4171 12.2958 H 110 GLY
687 H687 3.88769 19.9798 11.3314 H 115 GLY
688 H688 -2.55 19 11 H 117 GLY
689 H689 -2.55494 20.0098 10.9971 H 114 GLY
690 H690 4.25 21.5 11 H 117 GLY
691 H691 3.76188 21.4887 10.9961 H 111 GLY
692 H692 4.25 18.5 11 H 117 GLY
693 H693 3.75073 18.4955 11.0008 H 112 GLY
694 H694 4.25248 20.0018 10.9902 H 115 GLY
695 H695 3.25 18.5 11 H 117 GLY
696 H696 0.75 19 9.85 H 117 GLY
697 H697 3.25 21.5 11 H 117 GLY
698 H698 0.75 22 9.85 H 117 GLY
699 H699 0.751655 19.9964 9.84759 H 116 GLY
700 H700 0.748972 20.9964 9.85803 H 116 GLY
701 H701 6.99926 36.0057 16.5147 H 118 GLY
702 H702 9.49758 35.9891 16.4841 H 119 GLY
703 H703 6.96265 36.6769 17.8557 H 118 GLY
704 H704 7.63094 37.1792 17.5205 H 121 GLY
705 H705 9.48558 36.819 17.7336 H 119 GLY
706 H706 8.67533 37.1209 17.513 H 122 GLY
707 H707 8.19897 37.8854 17.629 H 120 GLY
708 H708 8.24851 37.3016 19.0098 H 120 GLY
709 H709 9.2481 37.3028 19.0068 H 123 GLY
710 H710 8.29806 36.7177 20.3906 H 120 GLY
711 H711 8.23825 39.7148 20.3748 H 124 GLY
712 H712 5.26495 39.3068 15.2298 H 125 GLY
713 H713 5.24446 40.0515 15.17 H 127 GLY
714 H714 9.24763 39.2842 15.4493 H 126 GLY
715 H715 9.23978 40.0123 15.3595 H 127 GLY
716 H716 8.24563 40.3208 19.0027 H 124 GLY
717 H717 8.25902 39.2728 19.0015 H 128 GLY
718 H718 5 36 16.5 H 129 GLY
719 H719 5.99958 35.9884 16.4961 H 118 GLY
720 H720 11.5 36 16.5 H 130 GLY
721 H721 10.4975 35.9983 16.4876 H 119 GLY
722 H722 6.25 38.3 15.4 H 131 GLY
723 H723 6.25246 39.3101 15.3873 H 125 GLY
724 H724 10.25 38.3 15.4 H 132 GLY
725 H725 10.246 39.2914 15.3926 H 126 GLY
726 H726 9.25 40.3 19 H 133 GLY
727 H727 13.0864 31.9766 18.1493 H 134 GLY
728 H728 12.9962 32.9602 18.2256 H 137 GLY
729 H729 16.9372 32.9887 17.5417 H 137 GLY
730 H730 16.8268 31.9884 17.4988 H 138 GLY
731 H731 11.809 31.9918 17.3632 H 134 GLY
732 H732 10.48 32.0464 16.6751 H 139 GLY
733 H733 16.8 31 16.5 H 141 GLY
734 H734 16.7885 31.9931 16.4996 H 138 GLY
735 H735 10 33.5 16.5 H 141 GLY
736 H736 10.4994 33.5138 16.5038 H 135 GLY
737 H737 10 30.5 16.5 H 141 GLY
738 H738 10.4837 30.5001 16.5033 H 136 GLY
739 H739 10.0173 31.9829 16.4964 H 139 GLY
740 H740 11 30.5 16.5 H 141 GLY
741 H741 13.5 31 15.35 H 141 GLY
742 H742 11 33.5 16.5 H 141 GLY
743 H743 13.5 34 15.35 H 141 GLY
744 H744 13.5047 31.9958 15.3543 H 140 GLY
745 H745 13.4928 32.9958 15.3559 H 140 GLY
746 H746 3.2464 32.2138 17.7682 H 142 GLY
747 H747 3.16023 33.1926 17.6697 H 145 GLY
748 H748 -0.210707 33.0142 15.5237 H 145 GLY
749 H749 -0.258708 32.0276 15.4995 H 146 GLY
750 H750 4.65739 32.2125 17.2592 H 142 GLY
751 H751 6.03918 32.0163 16.711 H 147 GLY
752 H752 -0.3 31 16.5 H 149 GLY
753 H753 -0.291801 32.014 16.4988 H 146 GLY
754 H754 6.5 33.5 16.5 H 149 GLY
755 H755 5.9969 33.5023 16.5021 H 143 GLY
756 H756 6.5 30.5 16.5 H 149 GLY
757 H757 6.00253 30.5034 16.4996 H 144 GLY
758 H758 6.49062 31.9974 16.4969 H 147 GLY
759 H759 5.5 30.5 16.5 H 149 GLY
760 H760 3 31 15.35 H 149 GLY
761 H761 5.5 33.5 16.5 H 149 GLY
762 H762 3 34 15.35 H 149 GLY
763 H763 3.01624 31.9882 15.3387 H 148 GLY
764 H764 3.0021 32.9881 15.3373 H 148 GLY
765 H765 5.42681 44.7567 19.9679 H 150 GLY
766 H766 5.38062 45.7596 19.976 H 153 GLY
767 H767 1.88396 45.5037 18.0504 H 153 GLY
768 H768 1.86408 44.4884 17.9954 H 154 GLY
769 H769 6.87153 44.8122 19.5683 H 150 GLY
770 H770 8.26367 44.4497 19.1045 H 155 GLY
771 H771 1.95 43.5 19 H 157 GLY
772 H772 1.96314 44.4948 18.9905 H 154 GLY
773 H773 8.75 46 19 H 157 GLY
774 H774 8.23521 45.9981 19.0087 H 151 GLY
775 H775 8.75 43 19 H 157 GLY
776 H776 8.25946 42.999 19.001 H 152 GLY
777 H777 8.75114 44.4812 18.9978 H 155 GLY
778 H778 7.75 43 19 H 157 GLY
779 H779 5.25 43.5 17.85 H 157 GLY
780 H780 7.75 46 19 H 157 GLY
781 H781 5.25 46.5 17.85 H 157 GLY
782 H782 5.24883 44.5076 17.8545 H 156 GLY
783 H783 5.25155 45.5076 17.8533 H 156 GLY
784 H784 -0.73222 0.728663 1.30498 H 0 GLY
785 H785 3.79962 0.737664 1.29185 H 1 GLY
786 H786 1.51538 5.8742 4.14282 H 80 GLY
787 H787 1.53238 12.5252 6.91656 H 54 GLY
788 H788 1.5017 10.0522 6.89862 H 79 GLY
789 H789 6.00584 12.7081 6.83637 H 55 GLY
790 H790 6.01676 10.1969 6.82672 H 71 GLY
791 H791 3.73481 18.014 9.5803 H 112 GLY
792 H792 3.75054 24.4678 12.4318 H 86 GLY
793 H793 3.77378 21.9713 12.4163 H 111 GLY
794 H794 8.26445 24.6945 12.3086 H 87 GLY
795 H795 8.25504 22.1894 12.3384 H 103 GLY
796 H796 6.01116 30.068 15.0642 H 144 GLY
797 H797 5.96297 36.6596 17.8371 H 118 GLY
798 H798 6.00819 34.153 17.8536 H 143 GLY
799 H799 10.4855 36.8283 17.737 H 119 GLY
800 H800 10.4893 34.3246 17.7657 H 135 GLY
801 H801 8.2741 42.4192 20.3844 H 152 GLY
@<TRIPOS>BOND
1 455 456 1
2 462 463 1
3 466 467 1
4 468 469 1
5 470 480 1
6 472 473 1
7 474 475 1
8 476 477 1
9 478 479 1
10 481 482 1
11 483 484 1
12 485 486 1
13 487 488 1
14 489 490 1
15 491 492 1
16 493 494 1
17 493 497 1
18 493 497 1
19 495 496 1
20 495 497 1
21 495 497 1
22 498 499 1
23 499 502 1
24 500 501 1
25 501 503 1
26 504 505 1
27 506 507 1
28 508 509 1
29 510 511 1
30 512 513 1
31 512 516 1
32 512 516 1
33 514 515 1
34 514 516 1
35 514 516 1
36 517 518 1
37 518 521 1
38 519 520 1
39 520 522 1
40 527 528 1
41 529 530 1
42 531 532 1
43 533 534 1
44 535 536 1
45 537 538 1
46 539 540 1
47 539 543 1
48 539 543 1
49 541 542 1
50 541 543 1
51 541 543 1
52 544 545 1
53 545 548 1
54 546 547 1
55 547 549 1
56 550 551 1
57 552 553 1
58 554 555 1
59 556 557 1
60 558 559 1
61 558 562 1
62 558 562 1
63 560 561 1
64 560 562 1
65 560 562 1
66 563 564 1
67 564 567 1
68 565 566 1
69 566 568 1
70 573 574 1
71 580 581 1
72 584 585 1
73 586 587 1
74 588 598 1
75 590 591 1
76 592 593 1
77 594 595 1
78 596 597 1
79 599 600 1
80 601 602 1
81 603 604 1
82 605 606 1
83 607 608 1
84 607 611 1
85 607 611 1
86 609 610 1
87 609 611 1
88 609 611 1
89 612 613 1
90 613 616 1
91 614 615 1
92 615 617 1
93 618 619 1
94 620 621 1
95 622 623 1
96 624 625 1
97 626 627 1
98 626 630 1
99 626 630 1
100 628 629 1
101 628 630 1
102 628 630 1
103 631 632 1
104 632 635 1
105 633 634 1
106 634 636 1
107 637 638 1
108 644 645 1
109 648 649 1
110 650 651 1
111 652 662 1
112 654 655 1
113 656 657 1
114 658 659 1
115 660 661 1
116 663 664 1
117 665 666 1
118 667 668 1
119 669 670 1
120 671 672 1
121 671 675 1
122 671 675 1
123 673 674 1
124 673 675 1
125 673 675 1
126 676 677 1
127 677 680 1
128 678 679 1
129 679 681 1
130 682 683 1
131 684 685 1
132 686 687 1
133 688 689 1
134 690 691 1
135 690 694 1
136 690 694 1
137 692 693 1
138 692 694 1
139 692 694 1
140 695 696 1
141 696 699 1
142 697 698 1
143 698 700 1
144 701 702 1
145 708 709 1
146 712 713 1
147 714 715 1
148 716 726 1
149 718 719 1
150 720 721 1
151 722 723 1
152 724 725 1
153 727 728 1
154 729 730 1
155 731 732 1
156 733 734 1
157 735 736 1
158 735 739 1
159 735 739 1
160 737 738 1
161 737 739 1
162 737 739 1
163 740 741 1
164 741 744 1
165 742 743 1
166 743 745 1
167 746 747 1
168 748 749 1
169 750 751 1
170 752 753 1
171 754 755 1
172 754 758 1
173 754 758 1
174 756 757 1
175 756 758 1
176 756 758 1
177 759 760 1
178 760 763 1
179 761 762 1
180 762 764 1
181 765 766 1
182 767 768 1
183 769 770 1
184 771 772 1
185 773 774 1
186 773 777 1
187 773 777 1
188 775 776 1
189 775 777 1
190 775 777 1
191 778 779 1
192 779 782 1
193 780 781 1
194 781 783 1
