#
#
#

#
#

@<TRIPOS>MOLECULE
Panda
809 490
SMALL
NO CHARGES


@<TRIPOS>ATOM
1 C1 0.256344 -0.00739799 -0.0104086 C 0 GLY
2 C2 0.270328 0.325314 0.661608 C 0 GLY
3 C3 0.284311 0.658028 1.33363 C 0 GLY
4 C4 -0.743423 0.0105662 0.00149989 C 0 GLY
5 C5 -0.715457 0.675993 1.34554 C 0 GLY
6 U6 -0.77139 -0.654859 -1.34254 U 0 GLY
7 C7 2.74847 0.0133016 -0.0127676 C 1 GLY
8 C8 2.73989 0.334802 0.664775 C 1 GLY
9 C9 2.73131 0.656302 1.34232 C 1 GLY
10 C10 3.74831 0.00589296 0.00340584 C 1 GLY
11 C11 3.73115 0.648894 1.35849 C 1 GLY
12 C12 1.49906 1.3107 2.48407 C 2 GLY
13 C13 1.51381 1.56143 1.77737 C 2 GLY
14 C14 1.52856 1.81216 1.07068 C 2 GLY
15 C15 0.891179 2.19391 1.19282 C 2 GLY
16 C16 2.19026 2.14614 1.20298 C 2 GLY
17 C17 0.263473 2.56587 1.31168 C 2 GLY
18 C18 2.84165 2.47107 1.33186 C 2 GLY
19 C19 1.46955 0.809244 3.89746 C 2 GLY
20 H20 0.938021 1.14939 0.90448 H 3 GLY
21 H21 2.04599 1.07932 0.931266 H 4 GLY
22 H22 2.50222 1.30891 2.47547 H 5 GLY
23 C23 1.52139 4.83823 1.10114 C 6 GLY
24 C24 1.49354 4.32533 2.51046 C 6 GLY
25 C25 1.46568 3.81243 3.91977 C 6 GLY
26 U26 0.494074 4.30627 2.48377 U 6 GLY
27 O27 -0.496814 3.29215 -0.897007 O 7 GLY
28 O28 0.229074 3.28985 -0.209198 O 7 GLY
29 U29 -0.512232 2.29235 -0.884082 U 7 GLY
30 U30 0.190825 3.27217 -1.62278 U 7 GLY
31 O31 3.50054 3.29272 -0.908758 O 8 GLY
32 O32 4.29307 3.28465 -0.298973 O 8 GLY
33 U33 3.49621 2.29276 -0.916358 U 8 GLY
34 U34 4.11037 3.2961 -1.70129 U 8 GLY
35 O35 0.286437 4.00648 -0.352716 O 9 GLY
36 O36 1.28641 4.01053 -0.358125 O 9 GLY
37 O37 2.28639 4.01457 -0.363532 O 9 GLY
38 O38 3.28637 4.01861 -0.368939 O 9 GLY
39 O39 4.28635 4.02265 -0.374347 O 9 GLY
40 O40 0.283882 4.4948 -0.460168 O 9 GLY
41 O41 1.28386 4.49884 -0.465576 O 9 GLY
42 O42 2.28383 4.50288 -0.470983 O 9 GLY
43 O43 3.28382 4.50692 -0.47639 O 9 GLY
44 O44 4.28379 4.51096 -0.481798 O 9 GLY
45 O45 0.287363 4.3581 0.0818683 O 9 GLY
46 O46 1.28734 4.36214 0.0764603 O 9 GLY
47 O47 2.28732 4.36619 0.0710532 O 9 GLY
48 O48 3.2873 4.37023 0.0656461 O 9 GLY
49 O49 4.28728 4.37427 0.060238 O 9 GLY
50 U50 0.285159 4.25064 -0.406442 U 9 GLY
51 O51 1.49816 3.27137 2.50352 O 10 GLY
52 H52 -1.75 0 0 H 11 GLY
53 H53 4.75 0 0 H 12 GLY
54 H54 -0.5 2.3 -0.9 H 13 GLY
55 H55 3.5 2.3 -0.9 H 14 GLY
56 H56 2.5 4.3 2.5 H 15 GLY
57 C57 3.7522 -3.17739 -1.34407 C 16 GLY
58 C58 3.74523 -2.52096 0.00465238 C 16 GLY
59 C59 3.73827 -1.86454 1.35338 C 16 GLY
60 C60 6.75214 -3.16121 -1.33646 C 16 GLY
61 C61 6.74518 -2.50479 0.0122659 C 16 GLY
62 C62 6.73822 -1.84836 1.36099 C 16 GLY
63 H63 2.75 -2.5 0 H 17 GLY
64 H64 7.75 -2.5 0 H 18 GLY
65 O65 4.34488 -13.4696 1.64607 O 19 GLY
66 O66 5.55422 -13.4967 2.53306 O 19 GLY
67 U67 3.13554 -13.4424 0.759073 U 19 GLY
68 C68 3.76699 -12.6169 -1.34987 C 20 GLY
69 C69 3.75056 -11.9887 0.0121242 C 20 GLY
70 C70 3.73413 -11.3604 1.37412 C 20 GLY
71 U71 2.75063 -11.9897 0.000530038 U 20 GLY
72 C72 3.73022 -14.1369 -1.22274 C 21 GLY
73 C73 3.75217 -15.0023 0.00220699 C 21 GLY
74 C74 3.77411 -15.8678 1.22716 C 21 GLY
75 U75 2.75227 -15.0111 0.0139163 U 21 GLY
76 U76 3.7668 -15.5793 0.81884 U 21 GLY
77 O77 5.70038 -12.5307 2.28005 O 22 GLY
78 O78 6.49899 -12.5333 1.67821 O 22 GLY
79 O79 7.29761 -12.536 1.07637 O 22 GLY
80 O80 8.09622 -12.5386 0.474535 O 22 GLY
81 O81 8.89484 -12.5412 -0.127302 O 22 GLY
82 C82 10.036 -13.5055 -0.00384778 C 23 GLY
83 C83 9.03992 -13.5257 -0.0899884 C 23 GLY
84 U84 10.057 -14.5053 -0.0119002 U 23 GLY
85 U85 11.0321 -13.4853 0.0822926 U 23 GLY
86 C86 4.75768 -13.4107 -0.447872 C 24 GLY
87 C87 3.51652 -13.4032 0.394428 C 24 GLY
88 C88 2.27536 -13.3957 1.23673 C 24 GLY
89 O89 3.24103 -13.5034 -0.0106167 O 24 GLY
90 C90 6.75012 -13.4951 -1.14309 C 25 GLY
91 C91 6.75132 -12.4951 -1.14958 C 25 GLY
92 H92 10.05 -14.5 1.0679e-07 H 26 GLY
93 U93 3.75001 -13.5 -9.19241e-07 U 26 GLY
94 U94 3.25001 -12 -9.55266e-07 U 26 GLY
95 U95 3.25 -15 -1.41564e-06 U 26 GLY
96 U96 2.75001 -9 -1.35258e-06 U 26 GLY
97 U97 4.25 -15 -1.25336e-06 U 26 GLY
98 U98 4.25001 -12 -7.29193e-07 U 26 GLY
99 U99 6.75 -14.5 -1.14999 U 26 GLY
100 U100 6.75 -11.5 -1.15 U 26 GLY
101 O101 8.24587 -6.63009 0.317445 O 27 GLY
102 O102 9.74583 -6.61931 0.317382 O 27 GLY
103 U103 6.74591 -6.64087 0.317508 U 27 GLY
104 C104 6.75236 -5.64212 -1.35201 C 28 GLY
105 C105 6.74359 -4.99487 0.00113345 C 28 GLY
106 C106 6.73482 -4.34762 1.35427 C 28 GLY
107 U107 5.74361 -4.99948 -0.00314883 U 28 GLY
108 C108 6.73865 -8.72049 -1.31646 C 29 GLY
109 C109 6.74259 -8.01286 0.0061275 C 29 GLY
110 C110 6.74652 -7.30522 1.32871 C 29 GLY
111 U111 5.74276 -7.9956 -0.000129069 U 29 GLY
112 U112 6.74521 -7.5411 0.887853 U 29 GLY
113 O113 9.90406 -5.63683 0.36819 O 30 GLY
114 O114 10.8965 -5.60628 0.249039 O 30 GLY
115 O115 11.8889 -5.57573 0.129889 O 30 GLY
116 O116 12.8813 -5.54518 0.0107386 O 30 GLY
117 O117 13.8737 -5.51463 -0.108412 O 30 GLY
118 C118 13.0495 -6.50254 -0.0090714 C 31 GLY
119 C119 14.0486 -6.49489 -0.0502669 C 31 GLY
120 U120 13.0581 -7.50224 0.013548 U 31 GLY
121 C121 6.90073 -7.14627 -1.30103 C 32 GLY
122 C122 6.75432 -6.51308 0.0508672 C 32 GLY
123 C123 6.60791 -5.87989 1.40277 C 32 GLY
124 O124 6.25839 -6.49648 -0.0106156 O 32 GLY
125 C125 9.74202 -6.5036 -1.14964 C 33 GLY
126 C126 9.75282 -5.50366 -1.1499 C 33 GLY
127 H127 13.05 -7.5 1.0679e-07 H 34 GLY
128 U128 6.75001 -6.5 -9.19241e-07 U 34 GLY
129 U129 6.25001 -5 -9.55266e-07 U 34 GLY
130 U130 6.25 -7.99999 -1.41564e-06 U 34 GLY
131 U131 5.75001 -2 -1.35258e-06 U 34 GLY
132 U132 7.25 -7.99999 -1.25336e-06 U 34 GLY
133 U133 7.25001 -5 -7.29193e-07 U 34 GLY
134 U134 9.75 -7.5 -1.14999 U 34 GLY
135 U135 9.75 -4.5 -1.15 U 34 GLY
136 C136 -3.74424 -3.18648 -1.32944 C 35 GLY
137 C137 -3.74307 -2.50181 0.0051863 C 35 GLY
138 C138 -3.7419 -1.81713 1.33981 C 35 GLY
139 C139 -0.744243 -3.19061 -1.32995 C 35 GLY
140 C140 -0.743072 -2.50593 0.00467297 C 35 GLY
141 C141 -0.741901 -1.82126 1.3393 C 35 GLY
142 H142 -4.75 -2.5 0 H 36 GLY
143 H143 0.25 -2.5 0 H 37 GLY
144 O144 -2.65093 -13.2014 2.34959 O 38 GLY
145 O145 -1.42359 -13.1353 1.48979 O 38 GLY
146 U146 -0.196239 -13.0693 0.629987 U 38 GLY
147 C147 -0.720136 -12.6227 -1.34653 C 39 GLY
148 C148 -0.741881 -11.9766 0.00702556 C 39 GLY
149 C149 -0.763627 -11.3305 1.36058 C 39 GLY
150 U150 -1.74178 -11.9838 -0.00558922 U 39 GLY
151 C151 -0.742069 -14.2023 -1.28218 C 40 GLY
152 C152 -0.746657 -14.987 -0.0038581 C 40 GLY
153 C153 -0.751244 -15.7718 1.27447 C 40 GLY
154 U154 -1.74665 -14.9856 -0.00656332 U 40 GLY
155 U155 -0.749715 -15.5102 0.84836 U 40 GLY
156 O156 -5.98738 -12.4853 -0.138062 O 41 GLY
157 O157 -5.19226 -12.4161 0.464433 O 41 GLY
158 O158 -4.39715 -12.3468 1.06693 O 41 GLY
159 O159 -3.60203 -12.2776 1.66942 O 41 GLY
160 O160 -2.80692 -12.2084 2.27192 O 41 GLY
161 C161 -6.07202 -13.4837 -0.0583365 C 42 GLY
162 C162 -7.07062 -13.4998 -0.00778569 C 42 GLY
163 U163 -7.05316 -14.4993 0.0185739 U 42 GLY
164 U164 -8.06921 -13.516 0.0427649 U 42 GLY
165 C165 -1.7047 -13.2726 -0.62231 C 43 GLY
166 C166 -0.592613 -13.5821 0.335542 C 43 GLY
167 C167 0.519473 -13.8916 1.29339 C 43 GLY
168 O168 -0.257956 -13.5029 -0.0273985 O 43 GLY
169 C169 -3.75192 -13.494 -1.16679 C 44 GLY
170 C170 -3.74777 -12.4941 -1.15773 C 44 GLY
171 H171 -7.05 -14.5 1.0679e-07 H 45 GLY
172 U172 -0.750006 -13.5 -9.19241e-07 U 45 GLY
173 U173 -0.250005 -12 -9.55266e-07 U 45 GLY
174 U174 -0.250002 -15 -1.41564e-06 U 45 GLY
175 U175 0.249993 -9 -1.35258e-06 U 45 GLY
176 U176 -1.25 -15 -1.25336e-06 U 45 GLY
177 U177 -1.25001 -12 -7.29193e-07 U 45 GLY
178 U178 -3.75 -14.5 -1.14999 U 45 GLY
179 U179 -3.75 -11.5 -1.15 U 45 GLY
180 O180 -6.73278 -6.55017 0.312807 O 46 GLY
181 O181 -5.23679 -6.50987 0.210947 O 46 GLY
182 U182 -3.74079 -6.46958 0.109087 U 46 GLY
183 C183 -3.77623 -5.65754 -1.354 C 47 GLY
184 C184 -3.74719 -4.98964 -0.011213 C 47 GLY
185 C185 -3.71814 -4.32174 1.33157 C 47 GLY
186 U186 -4.74692 -4.99234 0.0117562 U 47 GLY
187 C187 -3.7234 -8.76602 -1.26748 C 48 GLY
188 C188 -3.74921 -8.00064 0.0222871 C 48 GLY
189 C189 -3.77501 -7.23526 1.31206 C 48 GLY
190 U190 -4.74892 -7.99524 -0.000922577 U 48 GLY
191 U191 -3.76641 -7.49039 0.882138 U 48 GLY
192 O192 -10.8617 -5.51099 -0.0540223 O 49 GLY
193 O193 -9.86544 -5.52296 0.0312833 O 49 GLY
194 O194 -8.86915 -5.53493 0.116589 O 49 GLY
195 O195 -7.87287 -5.5469 0.201894 O 49 GLY
196 O196 -6.87659 -5.55887 0.2872 O 49 GLY
197 C197 -11.038 -6.49234 0.0353388 C 50 GLY
198 C198 -10.039 -6.51454 -0.0038805 C 50 GLY
199 U199 -10.0604 -7.51408 0.017288 U 50 GLY
200 U200 -9.04002 -6.53673 -0.0430997 U 50 GLY
201 C201 -3.82925 -7.23163 -1.2757 C 51 GLY
202 C202 -3.74771 -6.50965 0.0365914 C 51 GLY
203 C203 -3.66616 -5.78768 1.34888 C 51 GLY
204 O204 -3.24927 -6.49758 -0.00102395 O 51 GLY
205 C205 -6.74685 -6.49348 -1.14579 C 52 GLY
206 C206 -6.74332 -5.49374 -1.16846 C 52 GLY
207 H207 -10.05 -7.5 1.0679e-07 H 53 GLY
208 U208 -3.75001 -6.5 -9.19241e-07 U 53 GLY
209 U209 -3.25001 -5 -9.55266e-07 U 53 GLY
210 U210 -3.25 -7.99999 -1.41564e-06 U 53 GLY
211 U211 -2.75001 -2 -1.35258e-06 U 53 GLY
212 U212 -4.25 -7.99999 -1.25336e-06 U 53 GLY
213 U213 -4.25001 -5 -7.29193e-07 U 53 GLY
214 U214 -6.75 -7.5 -1.14999 U 53 GLY
215 U215 -6.75 -4.5 -1.15 U 53 GLY
216 C216 2.48582 14.0083 5.49745 C 54 GLY
217 C217 2.49037 14.3092 6.18441 C 54 GLY
218 C218 2.49491 14.6102 6.87138 C 54 GLY
219 C219 1.48644 13.979 5.51691 C 54 GLY
220 C220 1.49553 14.5808 6.89083 C 54 GLY
221 U221 1.47735 13.3771 4.14298 U 54 GLY
222 C222 4.99793 13.9859 5.5098 C 55 GLY
223 C223 5.00148 14.3089 6.18667 C 55 GLY
224 C224 5.00504 14.632 6.86354 C 55 GLY
225 C225 5.99791 13.985 5.50499 C 55 GLY
226 C226 6.00503 14.631 6.85873 C 55 GLY
227 C227 3.74914 15.3087 8.00053 C 56 GLY
228 C228 3.71744 15.5377 7.28708 C 56 GLY
229 C229 3.68574 15.7668 6.57362 C 56 GLY
230 C230 2.99843 16.0493 6.69486 C 56 GLY
231 C231 4.28935 16.2025 6.68668 C 56 GLY
232 C232 2.32214 16.3235 6.81295 C 56 GLY
233 C233 4.88413 16.6275 6.79672 C 56 GLY
234 C234 3.81253 14.8505 9.42745 C 56 GLY
235 H235 3.20631 15.0054 6.49591 H 57 GLY
236 H236 4.32515 15.1214 6.52193 H 58 GLY
237 H237 4.7526 15.3013 7.99503 H 59 GLY
238 C238 3.7633 18.8152 6.5886 C 60 GLY
239 C239 3.75281 18.3293 8.0077 C 60 GLY
240 C240 3.74233 17.8435 9.4268 C 60 GLY
241 U241 2.75337 18.3007 7.99049 U 60 GLY
242 O242 1.75249 17.306 4.6005 O 61 GLY
243 O243 2.48583 17.3102 3.92065 O 61 GLY
244 U244 1.75936 16.306 4.60171 U 61 GLY
245 U245 1.07267 17.3004 3.86715 U 61 GLY
246 O246 5.76921 17.3024 4.59433 O 62 GLY
247 O247 6.39211 17.2805 3.81234 O 62 GLY
248 U248 5.74215 16.3028 4.60078 U 62 GLY
249 U249 4.98737 17.3196 3.97108 U 62 GLY
250 O250 2.4222 18.052 4.0054 O 63 GLY
251 O251 3.42142 18.0469 3.96626 O 63 GLY
252 O252 4.42064 18.0418 3.92712 O 63 GLY
253 O253 5.41987 18.0366 3.88798 O 63 GLY
254 O254 6.41909 18.0315 3.84884 O 63 GLY
255 O255 2.42705 18.5486 4.06387 O 63 GLY
256 O256 3.42626 18.5435 4.02473 O 63 GLY
257 O257 4.42549 18.5383 3.98559 O 63 GLY
258 O258 5.42471 18.5332 3.94645 O 63 GLY
259 O259 6.42393 18.5281 3.90731 O 63 GLY
260 O260 2.44376 18.2417 4.53082 O 63 GLY
261 O261 3.44298 18.2366 4.49168 O 63 GLY
262 O262 4.4422 18.2314 4.45254 O 63 GLY
263 O263 5.44142 18.2263 4.4134 O 63 GLY
264 O264 6.44064 18.2212 4.37426 O 63 GLY
265 U265 2.42462 18.3003 4.03463 U 63 GLY
266 O266 3.74063 17.2663 8.0155 O 64 GLY
267 H267 0.5 14 5.5 H 65 GLY
268 H268 7 14 5.5 H 66 GLY
269 H269 1.75 16.3 4.6 H 67 GLY
270 H270 5.75 16.3 4.6 H 68 GLY
271 H271 4.75 18.3 8 H 69 GLY
272 O272 7.4122 10.2845 6.0434 O 70 GLY
273 O273 8.84722 10.2483 6.4786 O 70 GLY
274 U274 5.97718 10.3207 5.6082 U 70 GLY
275 C275 6.01313 10.8739 4.14163 C 71 GLY
276 C276 6.01255 11.5026 5.5035 C 71 GLY
277 C277 6.01196 12.1314 6.86538 C 71 GLY
278 U278 5.01255 11.5005 5.50407 U 71 GLY
279 C279 5.98601 7.82487 4.15356 C 72 GLY
280 C280 6.00317 8.48931 5.49826 C 72 GLY
281 C281 6.02032 9.15374 6.84296 C 72 GLY
282 U282 5.00351 8.51559 5.49803 U 72 GLY
283 U283 6.0146 8.93226 6.39473 U 72 GLY
284 O284 8.89933 11.2406 6.43311 O 73 GLY
285 O285 9.76816 11.1778 5.94199 O 73 GLY
286 O286 10.637 11.1151 5.45087 O 73 GLY
287 O287 11.5058 11.0523 4.95975 O 73 GLY
288 O288 12.3746 10.9896 4.46863 O 73 GLY
289 C289 12.2982 10.0019 5.48461 C 74 GLY
290 C290 12.327 9.9928 4.48507 C 74 GLY
291 U291 12.3017 9.00194 5.49381 U 74 GLY
292 U292 13.2978 10.0057 5.51338 U 74 GLY
293 C293 6.44307 9.4919 4.31346 C 75 GLY
294 C294 5.98859 10.0439 5.63206 C 75 GLY
295 C295 5.5341 10.596 6.95065 C 75 GLY
296 O296 5.51219 9.99516 5.48828 O 75 GLY
297 C297 9.00278 9.99803 4.34152 C 76 GLY
298 C298 8.99729 10.9979 4.35644 C 76 GLY
299 H299 12.3 9 5.5 H 77 GLY
300 U300 6.00001 10 5.5 U 77 GLY
301 U301 5.50001 11.5 5.5 U 77 GLY
302 U302 5.5 8.50001 5.5 U 77 GLY
303 U303 5.00001 14.5 5.5 U 77 GLY
304 U304 6.5 8.50001 5.5 U 77 GLY
305 U305 6.50001 11.5 5.5 U 77 GLY
306 U306 9 9 4.35001 U 77 GLY
307 U307 9 12 4.35 U 77 GLY
308 O308 -0.947519 9.65059 7.44177 O 78 GLY
309 O309 0.363194 9.77466 6.6344 O 78 GLY
310 U310 1.67328 9.8228 5.99024 U 78 GLY
311 C311 1.48874 12.0747 6.88316 C 79 GLY
312 C312 1.53974 10.3635 2.72156 C 79 GLY
313 C313 1.52274 10.9339 4.10876 C 79 GLY
314 C314 1.50574 11.5043 5.49596 C 79 GLY
315 C315 1.65647 7.49144 2.69247 C 80 GLY
316 C316 1.57421 7.99426 4.10328 C 80 GLY
317 C317 1.49195 8.49708 5.5141 C 80 GLY
318 C318 1.40969 8.9999 6.92492 C 80 GLY
319 O319 -4.60462 11.0208 6.509 O 81 GLY
320 O320 -3.65311 10.9765 6.74112 O 81 GLY
321 O321 -2.68461 10.8475 6.9615 O 81 GLY
322 O322 -1.73611 10.8145 7.20982 O 81 GLY
323 O323 -0.762996 10.7297 7.42489 O 81 GLY
324 C324 -4.77685 10.0472 6.47408 C 82 GLY
325 C325 -4.80128 10.0021 5.4944 C 82 GLY
326 U326 -4.78196 9.91449 4.49803 U 82 GLY
327 C327 0.991447 9.49711 4.47714 C 83 GLY
328 C328 1.5658 9.97683 5.77791 C 83 GLY
329 C329 2.16773 10.4525 7.04372 C 83 GLY
330 O330 1.99536 9.99608 5.51964 O 83 GLY
331 C331 -1.42813 10.0123 4.36907 C 84 GLY
332 C332 -1.46209 10.9952 4.36886 C 84 GLY
333 C333 1.52017 9.96966 9.99937 C 85 GLY
334 C334 1.70151 10.0335 11.0331 C 85 GLY
335 C335 1.57552 11.4997 11.0649 C 85 GLY
336 C336 2.01084 8.60656 9.18806 C 85 GLY
337 C337 1.90175 10.0765 9.2499 C 85 GLY
338 U338 1.54585 10.0369 9.03708 U 85 GLY
339 U339 1.5097 9.05162 9.99275 U 85 GLY
340 H340 1.42265 11.7899 8.93223 H 86 GLY
341 H341 1.33691 12 10.0533 H 87 GLY
342 H342 1.38937 11.8461 7.73719 H 88 GLY
343 H343 1.4862 8.90449 8.63265 H 89 GLY
344 H344 2.56325 9.04486 8.54587 H 90 GLY
345 H345 1.90749 9.10231 7.95863 H 91 GLY
346 H346 -4.80355 9.01214 5.50214 H 92 GLY
347 H347 1.49856 9.99881 5.50151 H 92 GLY
348 H348 2.00172 11.4977 5.50397 H 92 GLY
349 H349 1.99538 8.49776 5.49867 H 92 GLY
350 H350 1.49856 9.99881 5.50151 H 92 GLY
351 H351 0.995383 8.49987 5.49905 H 92 GLY
352 H352 1.00173 11.4999 5.50435 H 92 GLY
353 H353 -1.50398 9.00719 4.35089 H 92 GLY
354 H354 -1.49764 12.0072 4.35619 H 92 GLY
355 H355 1.4992 9.49085 10.0006 H 92 GLY
356 O356 -2.01067 10.4919 0.499048 O 93 GLY
357 O357 -1.07129 10.5382 0.159308 O 93 GLY
358 O358 -1.9746 9.4932 0.462576 O 93 GLY
359 O359 -1.07835 9.51023 0.882626 O 93 GLY
360 U360 -1.96595 10.53 -0.499457 U 93 GLY
361 O361 2.01293 10.4962 0.506199 O 94 GLY
362 O362 2.94503 10.5428 0.147001 O 94 GLY
363 O363 2.05413 9.49732 0.483629 O 94 GLY
364 O364 2.9585 9.52555 0.885282 O 94 GLY
365 U365 2.03742 10.5198 -0.493454 U 94 GLY
366 O366 -1.06262 11.2744 0.233493 O 95 GLY
367 O367 -0.0627023 11.2754 0.22116 O 95 GLY
368 O368 0.937221 11.2764 0.208828 O 95 GLY
369 O369 1.93715 11.2774 0.196496 O 95 GLY
370 O370 2.93708 11.2783 0.184163 O 95 GLY
371 O371 -1.06203 11.7666 0.321168 O 95 GLY
372 O372 -0.062109 11.7676 0.308835 O 95 GLY
373 O373 0.937815 11.7686 0.296503 O 95 GLY
374 O374 1.93774 11.7696 0.284171 O 95 GLY
375 O375 2.93767 11.7706 0.271838 O 95 GLY
376 O376 -1.05617 11.4328 0.769546 O 95 GLY
377 O377 -0.0562473 11.4338 0.757213 O 95 GLY
378 O378 0.943675 11.4348 0.74488 O 95 GLY
379 O379 1.9436 11.4358 0.732548 O 95 GLY
380 O380 2.94353 11.4368 0.720215 O 95 GLY
381 U381 -1.06232 11.5205 0.277331 U 95 GLY
382 O382 -1.04338 8.27257 0.767719 O 96 GLY
383 O383 -0.0433982 8.27631 0.769848 O 96 GLY
384 O384 0.956594 8.28004 0.771977 O 96 GLY
385 O385 1.95659 8.28378 0.774106 O 96 GLY
386 O386 2.95659 8.28751 0.776234 O 96 GLY
387 O387 -1.04535 8.77019 0.816386 O 96 GLY
388 O388 -0.0453609 8.77393 0.818514 O 96 GLY
389 O389 0.954632 8.77767 0.820643 O 96 GLY
390 O390 1.95463 8.7814 0.822772 O 96 GLY
391 O391 2.95462 8.78514 0.8249 O 96 GLY
392 O392 -1.04525 8.47271 1.28968 O 96 GLY
393 O393 -0.0452563 8.47645 1.29181 O 96 GLY
394 O394 0.954735 8.48018 1.29394 O 96 GLY
395 O395 1.95473 8.48392 1.29606 O 96 GLY
396 O396 2.95472 8.48766 1.29819 O 96 GLY
397 U397 -1.04437 8.52138 0.792053 U 96 GLY
398 H398 -1.99539 10.9984 0.494351 H 97 GLY
399 H399 2.00461 10.9966 0.499024 H 97 GLY
400 H400 2.00374 8.99666 0.483696 H 97 GLY
401 H401 -1.99626 8.99845 0.479023 H 97 GLY
402 C402 4.74 27.9959 10.9956 C 98 GLY
403 C403 4.74462 28.2975 11.6823 C 98 GLY
404 C404 4.74924 28.599 12.369 C 98 GLY
405 C405 3.74002 27.9978 11.0015 C 98 GLY
406 C406 3.74926 28.6009 12.3749 C 98 GLY
407 U407 3.73079 27.3948 9.62808 U 98 GLY
408 C408 7.25478 27.9961 10.9982 C 99 GLY
409 C409 7.24885 28.3687 11.6491 C 99 GLY
410 C410 7.24293 28.7414 12.2999 C 99 GLY
411 C411 8.25471 28.0078 11.0006 C 99 GLY
412 C412 8.24286 28.753 12.3024 C 99 GLY
413 C413 6.00829 29.3166 13.4999 C 100 GLY
414 C414 6.02176 29.5437 12.7852 C 100 GLY
415 C415 6.03523 29.7709 12.0706 C 100 GLY
416 C416 5.42175 30.1901 12.1923 C 100 GLY
417 C417 6.71637 30.0727 12.1794 C 100 GLY
418 C418 4.81733 30.5989 12.3108 C 100 GLY
419 C419 7.38667 30.366 12.2852 C 100 GLY
420 C420 5.98135 28.8623 14.9292 C 100 GLY
421 H421 5.44555 29.0692 12.0887 H 101 GLY
422 H422 6.42684 28.9772 11.9739 H 102 GLY
423 H423 7.01482 29.2954 13.5106 H 103 GLY
424 C424 5.96246 32.7531 12.0602 C 104 GLY
425 C425 5.99578 32.3083 13.4923 C 104 GLY
426 C426 6.02909 31.8636 14.9245 C 104 GLY
427 U427 4.99606 32.2932 13.5109 U 104 GLY
428 O428 4.014 31.3042 10.112 O 105 GLY
429 O429 3.33894 31.3073 9.37422 O 105 GLY
430 U430 4.01412 30.3042 10.1076 U 105 GLY
431 U431 3.27623 31.3012 10.787 U 105 GLY
432 O432 8.00027 31.3117 10.1051 O 106 GLY
433 O433 7.2848 31.3019 9.40655 O 106 GLY
434 U434 8.00576 30.3117 10.1136 U 106 GLY
435 U435 7.30165 31.3139 10.8206 U 106 GLY
436 O436 3.35114 32.0479 9.36038 O 107 GLY
437 O437 4.35106 32.048 9.34833 O 107 GLY
438 O438 5.35099 32.0481 9.33628 O 107 GLY
439 O439 6.35092 32.0481 9.32423 O 107 GLY
440 O440 7.35085 32.0482 9.31218 O 107 GLY
441 O441 3.35066 32.5466 9.32336 O 107 GLY
442 O442 4.35058 32.5466 9.31131 O 107 GLY
443 O443 5.35051 32.5467 9.29926 O 107 GLY
444 O444 6.35044 32.5468 9.28721 O 107 GLY
445 O445 7.35037 32.5468 9.27516 O 107 GLY
446 O446 3.3569 32.3343 9.84046 O 107 GLY
447 O447 4.35683 32.3343 9.82841 O 107 GLY
448 O448 5.35676 32.3344 9.81636 O 107 GLY
449 O449 6.35669 32.3345 9.80431 O 107 GLY
450 O450 7.35661 32.3346 9.79226 O 107 GLY
451 U451 3.3509 32.2973 9.34187 U 107 GLY
452 O452 6.00123 31.2782 13.4969 O 108 GLY
453 H453 2.75 28 11 H 109 GLY
454 H454 9.25 28 11 H 110 GLY
455 H455 4 30.3 10.1 H 111 GLY
456 H456 8 30.3 10.1 H 112 GLY
457 H457 7 32.3 13.5 H 113 GLY
458 O458 9.06613 24.2974 12.4128 O 114 GLY
459 O459 10.1695 24.3323 13.4283 O 114 GLY
460 U460 7.96277 24.2624 11.3972 U 114 GLY
461 C461 8.25862 24.7533 9.70522 C 115 GLY
462 C462 8.25488 25.5041 11.0038 C 115 GLY
463 C463 8.25113 26.2548 12.3024 C 115 GLY
464 U464 7.25494 25.4935 11.0071 U 115 GLY
465 C465 8.27508 21.9021 9.64669 C 116 GLY
466 C466 8.24554 22.5002 11.022 C 116 GLY
467 C467 8.216 23.0982 12.3973 C 116 GLY
468 U468 7.24575 22.4977 11.0016 U 116 GLY
469 U469 8.22585 22.8989 11.9389 U 116 GLY
470 O470 10.2861 25.3048 13.2315 O 117 GLY
471 O471 11.1033 25.2293 12.6601 O 117 GLY
472 O472 11.9204 25.1537 12.0886 O 117 GLY
473 O473 12.7376 25.0782 11.5172 O 117 GLY
474 O474 13.5548 25.0027 10.9458 O 117 GLY
475 C475 14.5501 24.0054 10.993 C 118 GLY
476 C476 13.5512 24.0145 11.0398 C 118 GLY
477 U477 14.542 23.0057 11.0152 U 118 GLY
478 U478 14.5031 23.9836 9.99431 U 118 GLY
479 C479 9.17715 23.7878 10.3558 C 119 GLY
480 C480 8.09022 24.1699 11.3164 C 119 GLY
481 C481 7.00328 24.5519 12.2769 C 119 GLY
482 O482 7.74626 24.0084 10.9913 O 119 GLY
483 C483 11.2583 24.0081 9.84788 C 120 GLY
484 C484 11.2561 25.0079 9.8699 C 120 GLY
485 H485 14.55 23 11 H 121 GLY
486 U486 8.25001 24 11 U 121 GLY
487 U487 7.75001 25.5 11 U 121 GLY
488 U488 7.75 22.5 11 U 121 GLY
489 U489 7.25001 28.5 11 U 121 GLY
490 U490 8.75 22.5 11 U 121 GLY
491 U491 8.75001 25.5 11 U 121 GLY
492 U492 11.25 23 9.85001 U 121 GLY
493 U493 11.25 26 9.85 U 121 GLY
494 O494 1.73425 24.0107 13.5284 O 122 GLY
495 O495 2.83578 23.996 12.446 O 122 GLY
496 U496 3.76428 23.9595 11.319 U 122 GLY
497 C497 3.7043 26.0967 12.3714 C 123 GLY
498 C498 3.83742 24.3665 8.21941 C 123 GLY
499 C499 3.79305 24.9432 9.60339 C 123 GLY
500 C500 3.74867 25.5199 10.9874 C 123 GLY
501 C501 3.80611 21.5922 8.13571 C 124 GLY
502 C502 3.77877 22.0451 9.56542 C 124 GLY
503 C503 3.75144 22.4981 10.9951 C 124 GLY
504 C504 3.72411 22.9511 12.4248 C 124 GLY
505 O505 -1.38509 25.0494 11.0314 O 125 GLY
506 O506 -0.597739 25.0871 11.6144 O 125 GLY
507 O507 0.17898 25.0531 12.2459 O 125 GLY
508 O508 0.963377 25.1103 12.8323 O 125 GLY
509 O509 1.76072 25.1048 13.4361 O 125 GLY
510 C510 -1.57377 24.055 11.0382 C 126 GLY
511 C511 -2.55286 24.0058 11.0012 C 126 GLY
512 U512 -3.55227 24.0161 10.9581 U 126 GLY
513 C513 3.01783 23.4783 10.2405 C 127 GLY
514 C514 3.87714 24.0172 11.3465 C 127 GLY
515 C515 4.75543 24.5491 12.4126 C 127 GLY
516 O516 4.2383 24.0069 10.9985 O 127 GLY
517 C517 0.754832 24.007 9.90489 C 128 GLY
518 C518 0.760481 24.9903 9.88504 C 128 GLY
519 C519 3.7468 23.9774 15.5006 C 129 GLY
520 C520 4.78618 24.0539 15.3614 C 129 GLY
521 C521 4.79629 25.5195 15.4979 C 129 GLY
522 C522 2.97137 22.6087 14.969 C 129 GLY
523 C523 3.01209 24.0785 15.0899 C 129 GLY
524 U524 2.78561 24.0341 15.4366 U 129 GLY
525 U525 3.75018 23.0593 15.5049 U 129 GLY
526 H526 4.57264 26.5988 13.8898 H 130 GLY
527 H527 5.08881 25.9877 14.5354 H 131 GLY
528 H528 4.20793 25.7896 13.0678 H 132 GLY
529 H529 3.33967 22.1738 14.2101 H 133 GLY
530 H530 3.65282 23.0236 14.5206 H 134 GLY
531 H531 3.60908 22.8112 13.5701 H 135 GLY
532 H532 -2.55205 23.0051 10.9989 H 136 GLY
533 H533 3.74836 24.0026 11.0016 H 136 GLY
534 H534 4.24896 25.5024 11.0033 H 136 GLY
535 H535 4.24775 22.5024 11.0001 H 136 GLY
536 H536 3.74836 24.0026 11.0016 H 136 GLY
537 H537 3.24775 22.5028 10.9998 H 136 GLY
538 H538 3.24897 25.5028 11.0031 H 136 GLY
539 H539 0.74825 23.005 9.84974 H 136 GLY
540 H540 0.749462 26.005 9.85297 H 136 GLY
541 H541 3.74703 23.4977 15.501 H 136 GLY
542 O542 0.236712 24.5015 6.02698 O 137 GLY
543 O543 -0.166312 24.5466 5.1129 O 137 GLY
544 O544 0.221483 23.5025 5.98439 O 137 GLY
545 O545 0.579909 23.5363 5.06223 O 137 GLY
546 U546 -0.763162 24.5157 6.04953 U 137 GLY
547 O547 4.25857 24.5089 6.01037 O 138 GLY
548 O548 3.84002 24.5401 5.10271 O 138 GLY
549 O549 4.22097 23.5098 5.9934 O 138 GLY
550 O550 4.56318 23.5127 5.06448 O 138 GLY
551 U551 3.25982 24.5458 6.05023 U 138 GLY
552 O552 -0.152916 25.2814 5.20573 O 139 GLY
553 O553 0.847054 25.2764 5.20072 O 139 GLY
554 O554 1.84703 25.2715 5.19571 O 139 GLY
555 O555 2.84701 25.2665 5.1907 O 139 GLY
556 O556 3.84699 25.2616 5.18569 O 139 GLY
557 O557 -0.150186 25.7784 5.26033 O 139 GLY
558 O558 0.849784 25.7734 5.25532 O 139 GLY
559 O559 1.84976 25.7685 5.25031 O 139 GLY
560 O560 2.84974 25.7635 5.24529 O 139 GLY
561 O561 3.84972 25.7586 5.24028 O 139 GLY
562 O562 -0.149332 25.4752 5.73003 O 139 GLY
563 O563 0.850641 25.4703 5.72502 O 139 GLY
564 O564 1.85062 25.4654 5.72001 O 139 GLY
565 O565 2.85059 25.4604 5.715 O 139 GLY
566 O566 3.85057 25.4555 5.70999 O 139 GLY
567 U567 -0.151551 25.5299 5.23303 U 139 GLY
568 O568 0.549835 22.2887 5.05411 O 140 GLY
569 O569 1.54981 22.2829 5.05385 O 140 GLY
570 O570 2.5498 22.2772 5.0536 O 140 GLY
571 O571 3.54979 22.2714 5.05334 O 140 GLY
572 O572 4.54978 22.2657 5.05309 O 140 GLY
573 O573 0.552708 22.7887 5.05379 O 140 GLY
574 O574 1.55269 22.7829 5.05353 O 140 GLY
575 O575 2.55267 22.7772 5.05328 O 140 GLY
576 O576 3.55266 22.7714 5.05302 O 140 GLY
577 O577 4.55265 22.7657 5.05277 O 140 GLY
578 O578 0.551399 22.539 5.55395 O 140 GLY
579 O579 1.55138 22.5333 5.55369 O 140 GLY
580 O580 2.55137 22.5275 5.55344 O 140 GLY
581 O581 3.55135 22.5218 5.55318 O 140 GLY
582 O582 4.55134 22.516 5.55293 O 140 GLY
583 U583 0.551271 22.5387 5.05395 U 140 GLY
584 H584 0.249852 24.9997 5.99815 H 141 GLY
585 H585 4.24985 25.0023 6.00177 H 141 GLY
586 H586 4.25116 23.0023 6.00075 H 141 GLY
587 H587 0.251164 22.9997 5.99713 H 141 GLY
588 C588 7.01034 42.0175 16.4848 C 142 GLY
589 C589 7.02099 42.3443 17.1598 C 142 GLY
590 C590 7.03164 42.671 17.8348 C 142 GLY
591 C591 6.01072 42.0022 16.508 C 142 GLY
592 C592 6.03203 42.6556 17.858 C 142 GLY
593 U593 5.98942 41.3488 15.158 U 142 GLY
594 C594 9.5058 41.9974 16.5095 C 143 GLY
595 C595 9.50825 42.4189 17.1299 C 143 GLY
596 C596 9.5107 42.8403 17.7503 C 143 GLY
597 C597 10.5056 42.0101 16.497 C 143 GLY
598 C598 10.5105 42.853 17.7377 C 143 GLY
599 C599 8.24455 43.3234 19.0063 C 144 GLY
600 C600 8.19423 43.6224 18.3203 C 144 GLY
601 C601 8.14392 43.9215 17.6344 C 144 GLY
602 C602 7.47058 44.2094 17.8093 C 144 GLY
603 C603 8.76451 44.3271 17.7657 C 144 GLY
604 C604 6.80789 44.4892 17.9798 C 144 GLY
605 C605 9.37584 44.7227 17.8933 C 144 GLY
606 C606 8.34519 42.7254 20.3782 C 144 GLY
607 H607 7.64546 43.2063 17.4517 H 145 GLY
608 H608 8.76091 43.2653 17.4867 H 146 GLY
609 H609 9.24524 43.3 18.9921 H 147 GLY
610 C610 8.25226 46.9296 17.6269 C 148 GLY
611 C611 8.25342 46.3184 18.9967 C 148 GLY
612 C612 8.25459 45.7073 20.3666 C 148 GLY
613 U613 7.25352 46.3056 18.9919 U 148 GLY
614 O614 6.25199 45.3029 15.5953 O 149 GLY
615 O615 5.5408 45.2947 16.2982 O 149 GLY
616 U616 6.25497 44.3029 15.5866 U 149 GLY
617 U617 6.95499 45.2988 16.3064 U 149 GLY
618 O618 10.2365 45.2877 15.6032 O 150 GLY
619 O619 9.47319 45.269 16.249 O 150 GLY
620 U620 10.2449 44.288 15.5843 U 150 GLY
621 U621 10.8825 45.2787 16.3665 U 150 GLY
622 O622 5.50681 46.0463 16.3266 O 151 GLY
623 O623 6.50578 46.0386 16.2819 O 151 GLY
624 O624 7.50475 46.0309 16.2373 O 151 GLY
625 O625 8.50373 46.0232 16.1927 O 151 GLY
626 O626 9.5027 46.0156 16.148 O 151 GLY
627 O627 5.51061 46.5462 16.3258 O 151 GLY
628 O628 6.50958 46.5386 16.2811 O 151 GLY
629 O629 7.50856 46.5309 16.2365 O 151 GLY
630 O630 8.50753 46.5232 16.1918 O 151 GLY
631 O631 9.50651 46.5156 16.1472 O 151 GLY
632 O632 5.53103 46.2969 16.8257 O 151 GLY
633 O633 6.53 46.2892 16.781 O 151 GLY
634 O634 7.52898 46.2816 16.7364 O 151 GLY
635 O635 8.52795 46.2739 16.6918 O 151 GLY
636 O636 9.52693 46.2662 16.6471 O 151 GLY
637 U637 5.50871 46.2963 16.3262 U 151 GLY
638 O638 8.25799 45.2657 19.0015 O 152 GLY
639 H639 5 42 16.5 H 153 GLY
640 H640 11.5 42 16.5 H 154 GLY
641 H641 6.25 44.3 15.6 H 155 GLY
642 H642 10.25 44.3 15.6 H 156 GLY
643 H643 9.25 46.3 19 H 157 GLY
644 O644 11.7442 38.3029 17.4403 O 158 GLY
645 O645 12.7732 38.3146 18.5316 O 158 GLY
646 U646 10.7151 38.2911 16.349 U 158 GLY
647 C647 10.485 38.6692 15.2445 C 159 GLY
648 C648 10.5018 39.5059 16.4893 C 159 GLY
649 C649 10.5185 40.3426 17.7341 C 159 GLY
650 U650 9.50183 39.5112 16.4992 U 159 GLY
651 C651 10.4983 35.8609 15.1391 C 160 GLY
652 C652 10.4995 36.4993 16.4964 C 160 GLY
653 C653 10.5007 37.1376 17.8538 C 160 GLY
654 U654 9.49956 36.4908 16.5013 U 160 GLY
655 U655 10.5003 36.9248 17.4014 U 160 GLY
656 O656 12.8898 39.3118 18.4617 O 161 GLY
657 O657 13.8571 39.2308 18.2215 O 161 GLY
658 O658 14.8245 39.1499 17.9814 O 161 GLY
659 O659 15.7918 39.0689 17.7413 O 161 GLY
660 O660 16.7592 38.9879 17.5011 O 161 GLY
661 C661 16.8055 37.9994 16.5082 C 162 GLY
662 C662 16.7481 38.0003 17.5065 C 162 GLY
663 U663 16.7979 36.9994 16.5086 U 162 GLY
664 U664 15.8072 38.0069 16.4508 U 162 GLY
665 C665 11.2201 37.4654 15.6714 C 163 GLY
666 C666 10.4099 38.11 16.7568 C 163 GLY
667 C667 9.59969 38.7546 17.8422 C 163 GLY
668 O668 9.98981 37.9968 16.5104 O 163 GLY
669 C669 13.4987 38.0075 15.3543 C 164 GLY
670 C670 13.5075 39.0075 15.3509 C 164 GLY
671 H671 16.8 37 16.5 H 165 GLY
672 U672 10.5 38 16.5 U 165 GLY
673 U673 10 39.5 16.5 U 165 GLY
674 U674 10 36.5 16.5 U 165 GLY
675 U675 9.50001 42.5 16.5 U 165 GLY
676 U676 11 36.5 16.5 U 165 GLY
677 U677 11 39.5 16.5 U 165 GLY
678 U678 13.5 37 15.35 U 165 GLY
679 U679 13.5 40 15.35 U 165 GLY
680 O680 3.1385 38.3196 17.5908 O 166 GLY
681 O681 4.58953 38.1762 17.0818 O 166 GLY
682 U682 5.97134 37.9132 16.6881 U 166 GLY
683 C683 6.07394 40.1654 17.8631 C 167 GLY
684 C684 5.87282 38.2237 13.8085 C 167 GLY
685 C685 5.93986 38.8709 15.16 C 167 GLY
686 C686 6.0069 39.5182 16.5116 C 167 GLY
687 C687 5.97221 35.572 13.6396 C 168 GLY
688 C688 5.99177 36.0421 15.0639 C 168 GLY
689 C689 6.01132 36.5122 16.4882 C 168 GLY
690 C690 6.03088 36.9823 17.9125 C 168 GLY
691 O691 -0.111641 38.8957 15.268 O 169 GLY
692 O692 0.728478 39.0213 15.7575 O 169 GLY
693 O693 1.54332 39.1326 16.3292 O 169 GLY
694 O694 2.38753 39.2749 16.8083 O 169 GLY
695 O695 3.22637 39.3808 17.3426 O 169 GLY
696 C696 -0.261572 37.9452 15.5178 C 170 GLY
697 C697 -0.287411 37.9995 16.497 C 170 GLY
698 U698 -0.268275 38.0145 17.4971 U 170 GLY
699 C699 5.71173 37.4464 15.3054 C 171 GLY
700 C700 6.02497 38.0421 16.6466 C 171 GLY
701 C701 6.37234 38.628 17.9607 C 171 GLY
702 O702 6.50076 38.0056 16.4921 O 171 GLY
703 C703 3.01644 38.0171 15.3545 C 172 GLY
704 C704 3.04749 39 15.3419 C 172 GLY
705 C705 5.9952 37.9758 21.0046 C 173 GLY
706 C706 5.8203 38.0448 19.9701 C 173 GLY
707 C707 5.9282 39.5126 19.9494 C 173 GLY
708 C708 5.51593 36.601 21.8028 C 173 GLY
709 C709 5.6071 38.0726 21.7521 C 173 GLY
710 U710 5.96197 38.0359 21.9671 U 173 GLY
711 U711 6.01709 37.058 21.0048 U 173 GLY
712 H712 5.11462 39.6933 18.0664 H 174 GLY
713 H713 5.62566 39.5124 18.9315 H 175 GLY
714 H714 5.95301 40.1109 18.7469 H 176 GLY
715 H715 6.03896 36.7683 20.0043 H 177 GLY
716 H716 5.74069 36.3113 20.9013 H 178 GLY
717 H717 5.84863 36.634 19.0574 H 179 GLY
718 H718 -0.292927 36.9964 16.4919 H 180 GLY
719 H719 6.0058 38.0044 16.5007 H 180 GLY
720 H720 6.50389 39.505 16.5044 H 180 GLY
721 H721 6.5077 36.505 16.498 H 180 GLY
722 H722 6.0058 38.0044 16.5007 H 180 GLY
723 H723 5.5077 36.5037 16.497 H 180 GLY
724 H724 5.5039 39.5037 16.5033 H 180 GLY
725 H725 3.00828 37.003 15.3454 H 180 GLY
726 H726 3.00447 40.003 15.3518 H 180 GLY
727 H727 6.00174 37.4948 20.9996 H 180 GLY
728 O728 2.50497 38.5019 11.4878 O 181 GLY
729 O729 1.57715 38.5151 11.8605 O 181 GLY
730 O730 2.4903 37.502 11.4868 O 181 GLY
731 O731 1.57992 37.5157 11.0982 O 181 GLY
732 U732 2.49401 38.501 12.4879 U 181 GLY
733 O733 6.51004 38.5073 11.4943 O 182 GLY
734 O734 5.60126 38.5283 11.9111 O 182 GLY
735 O735 6.49907 37.5077 11.5207 O 182 GLY
736 O736 5.57094 37.5088 11.1764 O 182 GLY
737 U737 6.5474 38.5333 12.4935 U 182 GLY
738 O738 1.63256 39.2455 11.7827 O 183 GLY
739 O739 2.63192 39.2542 11.817 O 183 GLY
740 O740 3.6313 39.263 11.8513 O 183 GLY
741 O741 4.63068 39.2717 11.8855 O 183 GLY
742 O742 5.63005 39.2805 11.9198 O 183 GLY
743 O743 1.62814 39.7454 11.7837 O 183 GLY
744 O744 2.62751 39.7542 11.818 O 183 GLY
745 O745 3.62688 39.763 11.8523 O 183 GLY
746 O746 4.62626 39.7717 11.8865 O 183 GLY
747 O747 5.62564 39.7805 11.9208 O 183 GLY
748 O748 1.61322 39.4943 12.2829 O 183 GLY
749 O749 2.61259 39.5031 12.3172 O 183 GLY
750 O750 3.61196 39.5118 12.3515 O 183 GLY
751 O751 4.61134 39.5206 12.3857 O 183 GLY
752 O752 5.61071 39.5293 12.42 O 183 GLY
753 U753 1.63035 39.4955 11.7832 U 183 GLY
754 O754 1.58525 36.2706 11.1397 O 184 GLY
755 O755 2.58456 36.2699 11.1769 O 184 GLY
756 O756 3.58387 36.2693 11.2141 O 184 GLY
757 O757 4.58318 36.2686 11.2512 O 184 GLY
758 O758 5.58249 36.2679 11.2884 O 184 GLY
759 O759 1.58705 36.7691 11.1004 O 184 GLY
760 O760 2.58636 36.7684 11.1376 O 184 GLY
761 O761 3.58567 36.7677 11.1748 O 184 GLY
762 O762 4.58498 36.767 11.212 O 184 GLY
763 O763 5.58429 36.7664 11.2492 O 184 GLY
764 O764 1.56764 36.5592 11.6182 O 184 GLY
765 O765 2.56695 36.5585 11.6553 O 184 GLY
766 O766 3.56626 36.5578 11.6925 O 184 GLY
767 O767 4.56557 36.5571 11.7297 O 184 GLY
768 O768 5.56488 36.5565 11.7669 O 184 GLY
769 U769 1.58615 36.5199 11.12 U 184 GLY
770 H770 2.50109 39.0055 11.4993 H 185 GLY
771 H771 6.50108 39.0018 11.5007 H 185 GLY
772 H772 6.49921 37.0018 11.4995 H 185 GLY
773 H773 2.49922 37.0055 11.4981 H 185 GLY
774 O774 5.26046 50.608 19.3054 O 186 GLY
775 O775 6.75127 50.6407 19.1428 O 186 GLY
776 U776 8.24207 50.6734 18.9802 U 186 GLY
777 C777 8.21371 52.7928 17.7153 C 187 GLY
778 C778 8.23415 52.0126 18.9963 C 187 GLY
779 C779 8.25458 51.2324 20.2773 C 187 GLY
780 U780 7.23425 52.0007 19.005 U 187 GLY
781 C781 8.26744 49.6066 17.6309 C 188 GLY
782 C782 8.25824 48.9992 19.0023 C 188 GLY
783 C783 8.24904 48.3917 20.3738 C 188 GLY
784 U784 7.25827 48.9975 18.9949 U 188 GLY
785 O785 1.28872 51.5115 18.3054 O 189 GLY
786 O786 2.25966 51.5336 18.5437 O 189 GLY
787 O787 3.23061 51.5558 18.7819 O 189 GLY
788 O788 4.20156 51.5779 19.0202 O 189 GLY
789 O789 5.17251 51.6 19.2584 O 189 GLY
790 C790 1.23315 50.5098 18.3201 C 190 GLY
791 C791 1.96801 50.4994 18.9983 C 190 GLY
792 U792 1.94442 49.4997 19.0084 U 190 GLY
793 U793 2.70287 50.4889 19.6764 U 190 GLY
794 U794 2.64582 50.4759 18.2634 U 190 GLY
795 C795 8.16515 51.1552 17.6798 C 191 GLY
796 C796 8.24075 50.5125 19.0331 C 191 GLY
797 C797 8.31635 49.8698 20.3863 C 191 GLY
798 O798 8.73956 50.5021 19.0003 O 191 GLY
799 C799 5.24626 50.4999 17.8657 C 192 GLY
800 C800 5.24606 51.4997 17.8436 C 192 GLY
801 H801 1.95 49.5 19 H 193 GLY
802 U802 8.24999 50.5 19 U 193 GLY
803 U803 8.74999 52 19 U 193 GLY
804 U804 8.75 49 19 U 193 GLY
805 U805 9.24999 55 19 U 193 GLY
806 U806 7.75 49 19 U 193 GLY
807 U807 7.74999 52 19 U 193 GLY
808 U808 5.25 49.5 17.85 U 193 GLY
809 U809 5.25 52.5 17.85 U 193 GLY
@<TRIPOS>BOND
1 1 7 1
2 4 52 1
3 7 1 1
4 10 53 1
5 12 22 1
6 22 12 1
7 24 56 1
8 27 54 1
9 28 35 1
10 31 55 1
11 32 39 1
12 35 28 1
13 39 32 1
14 52 4 1
15 53 10 1
16 54 27 1
17 55 31 1
18 56 24 1
19 58 63 1
20 61 64 1
21 63 58 1
22 64 61 1
23 65 87 1
24 66 77 1
25 69 94 1
26 73 95 1
27 77 66 1
28 81 83 1
29 82 92 1
30 83 81 1
31 87 65 1
32 89 94 1
33 89 95 1
34 89 94 1
35 89 95 1
36 90 99 1
37 91 100 1
38 92 82 1
39 94 69 1
40 94 89 1
41 94 89 1
42 95 73 1
43 95 89 1
44 95 89 1
45 97 99 1
46 98 100 1
47 99 97 1
48 99 90 1
49 100 98 1
50 100 91 1
51 101 122 1
52 102 113 1
53 105 129 1
54 109 130 1
55 113 102 1
56 117 119 1
57 118 127 1
58 119 117 1
59 122 101 1
60 124 129 1
61 124 130 1
62 124 129 1
63 124 130 1
64 125 134 1
65 126 135 1
66 127 118 1
67 129 105 1
68 129 124 1
69 129 124 1
70 130 109 1
71 130 124 1
72 130 124 1
73 132 134 1
74 133 135 1
75 134 132 1
76 134 125 1
77 135 133 1
78 135 126 1
79 137 142 1
80 140 143 1
81 142 137 1
82 143 140 1
83 144 160 1
84 145 166 1
85 148 173 1
86 152 174 1
87 156 161 1
88 160 144 1
89 161 156 1
90 162 171 1
91 166 145 1
92 168 173 1
93 168 174 1
94 168 173 1
95 168 174 1
96 169 178 1
97 170 179 1
98 171 162 1
99 173 148 1
100 173 168 1
101 173 168 1
102 174 152 1
103 174 168 1
104 174 168 1
105 176 178 1
106 177 179 1
107 178 176 1
108 178 169 1
109 179 177 1
110 179 170 1
111 180 196 1
112 181 202 1
113 184 209 1
114 188 210 1
115 192 197 1
116 196 180 1
117 197 192 1
118 198 207 1
119 202 181 1
120 204 209 1
121 204 210 1
122 204 209 1
123 204 210 1
124 205 214 1
125 206 215 1
126 207 198 1
127 209 184 1
128 209 204 1
129 209 204 1
130 210 188 1
131 210 204 1
132 210 204 1
133 212 214 1
134 213 215 1
135 214 212 1
136 214 205 1
137 215 213 1
138 215 206 1
139 216 222 1
140 219 267 1
141 222 216 1
142 225 268 1
143 227 237 1
144 237 227 1
145 239 271 1
146 242 269 1
147 243 250 1
148 246 270 1
149 247 254 1
150 250 243 1
151 254 247 1
152 267 219 1
153 268 225 1
154 269 242 1
155 270 246 1
156 271 239 1
157 272 294 1
158 273 284 1
159 276 301 1
160 280 302 1
161 284 273 1
162 288 290 1
163 289 299 1
164 290 288 1
165 294 272 1
166 296 301 1
167 296 302 1
168 296 301 1
169 296 302 1
170 297 306 1
171 298 307 1
172 299 289 1
173 301 276 1
174 301 296 1
175 301 296 1
176 302 280 1
177 302 296 1
178 302 296 1
179 304 306 1
180 305 307 1
181 306 304 1
182 306 297 1
183 307 305 1
184 307 298 1
185 308 323 1
186 309 328 1
187 311 342 1
188 314 348 1
189 314 352 1
190 317 349 1
191 317 351 1
192 318 345 1
193 319 324 1
194 323 308 1
195 324 319 1
196 325 346 1
197 328 309 1
198 330 348 1
199 330 349 1
200 331 353 1
201 332 354 1
202 333 355 1
203 335 341 1
204 336 344 1
205 340 341 1
206 340 342 1
207 341 335 1
208 341 340 1
209 342 340 1
210 342 311 1
211 343 344 1
212 343 345 1
213 344 336 1
214 344 343 1
215 345 343 1
216 345 318 1
217 346 325 1
218 348 314 1
219 348 330 1
220 349 317 1
221 349 330 1
222 351 317 1
223 351 353 1
224 352 314 1
225 352 354 1
226 353 351 1
227 353 331 1
228 354 352 1
229 354 332 1
230 355 333 1
231 356 398 1
232 357 366 1
233 358 401 1
234 359 387 1
235 361 399 1
236 362 370 1
237 363 400 1
238 364 391 1
239 366 357 1
240 370 362 1
241 387 359 1
242 391 364 1
243 398 356 1
244 399 361 1
245 400 363 1
246 401 358 1
247 402 408 1
248 405 453 1
249 408 402 1
250 411 454 1
251 413 423 1
252 423 413 1
253 425 457 1
254 428 455 1
255 429 436 1
256 432 456 1
257 433 440 1
258 436 429 1
259 440 433 1
260 453 405 1
261 454 411 1
262 455 428 1
263 456 432 1
264 457 425 1
265 458 480 1
266 459 470 1
267 462 487 1
268 466 488 1
269 470 459 1
270 474 476 1
271 475 485 1
272 476 474 1
273 480 458 1
274 482 487 1
275 482 488 1
276 482 487 1
277 482 488 1
278 483 492 1
279 484 493 1
280 485 475 1
281 487 462 1
282 487 482 1
283 487 482 1
284 488 466 1
285 488 482 1
286 488 482 1
287 490 492 1
288 491 493 1
289 492 490 1
290 492 483 1
291 493 491 1
292 493 484 1
293 494 509 1
294 495 514 1
295 497 528 1
296 500 534 1
297 500 538 1
298 503 535 1
299 503 537 1
300 504 531 1
301 505 510 1
302 509 494 1
303 510 505 1
304 511 532 1
305 514 495 1
306 516 534 1
307 516 535 1
308 517 539 1
309 518 540 1
310 519 541 1
311 521 527 1
312 522 530 1
313 526 527 1
314 526 528 1
315 527 521 1
316 527 526 1
317 528 526 1
318 528 497 1
319 529 530 1
320 529 531 1
321 530 522 1
322 530 529 1
323 531 529 1
324 531 504 1
325 532 511 1
326 534 500 1
327 534 516 1
328 535 503 1
329 535 516 1
330 537 503 1
331 537 539 1
332 538 500 1
333 538 540 1
334 539 537 1
335 539 517 1
336 540 538 1
337 540 518 1
338 541 519 1
339 542 584 1
340 543 552 1
341 544 587 1
342 545 573 1
343 547 585 1
344 548 556 1
345 549 586 1
346 550 577 1
347 552 543 1
348 556 548 1
349 573 545 1
350 577 550 1
351 584 542 1
352 585 547 1
353 586 549 1
354 587 544 1
355 588 594 1
356 591 639 1
357 594 588 1
358 597 640 1
359 599 609 1
360 609 599 1
361 611 643 1
362 614 641 1
363 615 622 1
364 618 642 1
365 619 626 1
366 622 615 1
367 626 619 1
368 639 591 1
369 640 597 1
370 641 614 1
371 642 618 1
372 643 611 1
373 644 666 1
374 645 656 1
375 648 673 1
376 652 674 1
377 656 645 1
378 660 662 1
379 661 671 1
380 662 660 1
381 666 644 1
382 668 673 1
383 668 674 1
384 668 673 1
385 668 674 1
386 669 678 1
387 670 679 1
388 671 661 1
389 673 648 1
390 673 668 1
391 673 668 1
392 674 652 1
393 674 668 1
394 674 668 1
395 676 678 1
396 677 679 1
397 678 676 1
398 678 669 1
399 679 677 1
400 679 670 1
401 680 695 1
402 681 700 1
403 683 714 1
404 686 720 1
405 686 724 1
406 689 721 1
407 689 723 1
408 690 717 1
409 691 696 1
410 695 680 1
411 696 691 1
412 697 718 1
413 700 681 1
414 702 720 1
415 702 721 1
416 703 725 1
417 704 726 1
418 705 727 1
419 707 713 1
420 708 716 1
421 712 713 1
422 712 714 1
423 713 707 1
424 713 712 1
425 714 712 1
426 714 683 1
427 715 716 1
428 715 717 1
429 716 708 1
430 716 715 1
431 717 715 1
432 717 690 1
433 718 697 1
434 720 686 1
435 720 702 1
436 721 689 1
437 721 702 1
438 723 689 1
439 723 725 1
440 724 686 1
441 724 726 1
442 725 723 1
443 725 703 1
444 726 724 1
445 726 704 1
446 727 705 1
447 728 770 1
448 729 738 1
449 730 773 1
450 731 759 1
451 733 771 1
452 734 742 1
453 735 772 1
454 736 763 1
455 738 729 1
456 742 734 1
457 759 731 1
458 763 736 1
459 770 728 1
460 771 733 1
461 772 735 1
462 773 730 1
463 774 789 1
464 775 796 1
465 778 803 1
466 782 804 1
467 785 790 1
468 789 774 1
469 790 785 1
470 791 801 1
471 796 775 1
472 798 803 1
473 798 804 1
474 798 803 1
475 798 804 1
476 799 808 1
477 800 809 1
478 801 791 1
479 803 778 1
480 803 798 1
481 803 798 1
482 804 782 1
483 804 798 1
484 804 798 1
485 806 808 1
486 807 809 1
487 808 806 1
488 808 799 1
489 809 807 1
490 809 800 1
