#
#
#

#
#

@<TRIPOS>MOLECULE
Panda
477 174
SMALL
NO CHARGES


@<TRIPOS>ATOM
1 C1 0.252353 -0.00219289 -0.000169284 C 0 ALA
2 C2 0.255657 0.353162 0.660294 C 0 ALA
3 C3 0.258961 0.708517 1.32076 C 0 ALA
4 C4 -0.747621 -0.00524231 0.00647436 C 0 ALA
5 C5 -0.741012 0.705468 1.3274 C 0 ALA
6 C6 2.74087 -0.00227434 0.00807264 C 1 ARG
7 C7 2.74255 0.33851 0.676177 C 1 ARG
8 C8 2.74423 0.679295 1.34428 C 1 ARG
9 C9 3.74087 -0.0043758 0.00663125 C 1 ARG
10 C10 3.74422 0.677193 1.34284 C 1 ARG
11 C11 1.50368 1.2894 2.50431 C 2 ASN
12 C12 1.51443 1.57178 1.80958 C 2 ASN
13 C13 1.52518 1.85417 1.11486 C 2 ASN
14 C14 0.880672 2.21814 1.25283 C 2 ASN
15 C15 2.18041 2.19412 1.26318 C 2 ASN
16 C16 0.246024 2.57267 1.38711 C 2 ASN
17 C17 2.8255 2.525 1.40765 C 2 ASN
18 C18 1.48217 0.724627 3.89376 C 2 ASN
19 H19 0.962476 1.16018 0.962306 H 3 ASP
20 H20 2.08813 1.18231 0.968461 H 4 ASP
21 H21 2.50558 1.3118 2.4902 H 5 GLY
22 C22 1.49704 4.9072 1.11869 C 6 THY
23 C23 1.51548 4.31809 2.49804 C 6 THY
24 C24 1.53393 3.72898 3.87739 C 6 THY
25 O25 -0.507568 3.30122 -1.09249 O 7 ALA
26 O26 -0.423813 3.29589 -0.0960152 O 7 ALA
27 O27 3.50009 3.29109 -1.10444 O 8 ALA
28 O28 3.59376 3.28273 -0.10887 O 8 ALA
29 O29 -0.392828 4.01991 -0.328438 O 9 ALA
30 O30 0.607162 4.01618 -0.33089 O 9 ALA
31 O31 1.60715 4.01246 -0.333341 O 9 ALA
32 O32 2.60714 4.00873 -0.335792 O 9 ALA
33 O33 3.60713 4.005 -0.338243 O 9 ALA
34 O34 -0.391524 4.48703 -0.506759 O 9 ALA
35 O35 0.608466 4.4833 -0.509211 O 9 ALA
36 O36 1.60846 4.47957 -0.511662 O 9 ALA
37 O37 2.60845 4.47585 -0.514113 O 9 ALA
38 O38 3.60844 4.47212 -0.516564 O 9 ALA
39 O39 -0.390367 4.43179 0.0495205 O 9 ALA
40 O40 0.609624 4.42806 0.0470692 O 9 ALA
41 O41 1.60961 4.42433 0.044618 O 9 ALA
42 O42 2.60961 4.4206 0.0421668 O 9 ALA
43 O43 3.6096 4.41688 0.0397155 O 9 ALA
44 O44 1.49257 3.28698 2.49888 O 10 GLY
45 H45 -1.75 0 0 H 11 GLY
46 H46 4.75 0 0 H 12 GLY
47 H47 -0.5 2.3 -1.1 H 13 GLY
48 H48 3.5 2.3 -1.1 H 14 GLY
49 H49 2.5 4.3 2.5 H 15 GLY
50 C50 3.74399 -3.18447 -1.3296 C 16 ASP
51 C51 3.74715 -2.50706 0.00872785 C 16 ASP
52 C52 3.75031 -1.82966 1.34705 C 16 ASP
53 C53 6.74394 -3.17185 -1.34306 C 16 ASP
54 C54 6.74709 -2.49445 -0.00473573 C 16 ASP
55 C55 6.75025 -1.81705 1.33359 C 16 ASP
56 H56 2.75 -2.5 0 H 17 GLY
57 H57 7.75 -2.5 0 H 18 GLY
58 O58 4.49397 -12.9244 1.45603 O 19 ASP
59 O59 5.73798 -13.0189 2.2888 O 19 ASP
60 C60 3.76175 -12.6229 -1.36145 C 20 ASN
61 C61 3.74945 -11.9807 -0.00593736 C 20 ASN
62 C62 3.73715 -11.3385 1.34958 C 20 ASN
63 C63 3.72987 -14.2807 -1.32353 C 21 ASP
64 C64 3.75123 -15.0038 -0.00951877 C 21 ASP
65 C65 3.77258 -15.7269 1.3045 C 21 ASP
66 O66 5.81983 -12.0391 2.10457 O 22 ARG
67 O67 6.63716 -12.1585 1.54092 O 22 ARG
68 O68 7.4545 -12.278 0.977279 O 22 ARG
69 O69 8.27184 -12.3974 0.413634 O 22 ARG
70 O70 9.08918 -12.5168 -0.150011 O 22 ARG
71 C71 10.0546 -13.5042 -0.0126019 C 23 ASN
72 C72 9.05555 -13.5165 -0.0539253 C 23 ASN
73 C73 4.72495 -13.5264 -0.563375 C 24 ARG
74 C74 3.55882 -13.4156 0.373564 C 24 ARG
75 C75 2.39269 -13.3047 1.3105 C 24 ARG
76 O76 3.2453 -13.5002 -0.00662822 O 24 ARG
77 C77 6.74668 -13.5052 -1.15055 C 25 GLY
78 C78 6.75547 -12.5052 -1.15087 C 25 GLY
79 H79 10.05 -14.5 0 H 26 GLY
80 O80 8.25126 -6.39975 -0.00151966 O 27 ASP
81 O81 9.74552 -6.41206 0.129082 O 27 ASP
82 C82 6.73952 -5.6654 -1.34724 C 28 ASN
83 C83 6.74055 -4.99345 -0.00616915 C 28 ASN
84 C84 6.74157 -4.3215 1.33491 C 28 ASN
85 C85 6.75196 -8.78332 -1.29973 C 29 ASP
86 C86 6.76536 -8.01687 -0.0103905 C 29 ASP
87 C87 6.77877 -7.25043 1.27894 C 29 ASP
88 O88 9.90564 -5.44911 0.344803 O 30 ARG
89 O89 10.9038 -5.47065 0.28879 O 30 ARG
90 O90 11.902 -5.4922 0.232778 O 30 ARG
91 O91 12.9002 -5.51374 0.176766 O 30 ARG
92 O92 13.8984 -5.53528 0.120754 O 30 ARG
93 C93 13.0494 -6.50933 -0.00501758 C 31 ASN
94 C94 14.0487 -6.50277 -0.0435395 C 31 ASN
95 C95 6.78538 -7.14426 -1.34225 C 32 ARG
96 C96 6.74809 -6.47545 -0.000126044 C 32 ARG
97 C97 6.7108 -5.80664 1.342 C 32 ARG
98 O98 6.24835 -6.48998 -0.00676926 O 32 ARG
99 C99 9.74923 -6.5001 -1.13834 C 33 GLY
100 C100 9.75852 -5.50014 -1.13895 C 33 GLY
101 H101 13.05 -7.5 0 H 34 GLY
102 C102 -3.74813 -3.18433 -1.33365 C 35 ASP
103 C103 -3.75277 -2.47858 -0.0100538 C 35 ASP
104 C104 -3.7574 -1.77284 1.31354 C 35 ASP
105 C105 -0.748287 -3.20541 -1.31191 C 35 ASP
106 C106 -0.75292 -2.49966 0.0116832 C 35 ASP
107 C107 -0.757552 -1.79391 1.33528 C 35 ASP
108 H108 -4.75 -2.5 0 H 36 GLY
109 H109 0.25 -2.5 0 H 37 GLY
110 O110 -2.70726 -13.6915 2.41279 O 38 ASP
111 O111 -1.50665 -13.6827 1.51364 O 38 ASP
112 C112 -0.742228 -12.6787 -1.33777 C 39 ASN
113 C113 -0.745204 -11.9866 -0.00696956 C 39 ASN
114 C114 -0.748179 -11.2945 1.32383 C 39 ASN
115 C115 -0.757268 -14.2239 -1.28962 C 40 ASP
116 C116 -0.752201 -15.0051 -0.00912629 C 40 ASP
117 C117 -0.747135 -15.7864 1.27136 C 40 ASP
118 O118 -6.07469 -12.4884 0.146447 O 41 ARG
119 O119 -5.26114 -12.5408 0.725577 O 41 ARG
120 O120 -4.44759 -12.5932 1.30471 O 41 ARG
121 O121 -3.63404 -12.6455 1.88384 O 41 ARG
122 O122 -2.82049 -12.6979 2.46297 O 41 ARG
123 C123 -6.05124 -13.4913 0.0372742 C 42 ASN
124 C124 -7.05047 -13.4961 -0.0017357 C 42 ASN
125 C125 -1.75625 -13.3078 -0.482699 C 43 ARG
126 C126 -0.556452 -13.5559 0.382722 C 43 ARG
127 C127 0.643346 -13.8039 1.24814 C 43 ARG
128 O128 -0.258015 -13.4967 -0.0140498 O 43 ARG
129 C129 -3.75048 -13.4974 -1.13699 C 44 GLY
130 C130 -3.74848 -12.4975 -1.15181 C 44 GLY
131 H131 -7.05 -14.5 0 H 45 GLY
132 O132 -6.74346 -6.53447 0.0847702 O 46 ASP
133 O133 -5.25589 -6.52207 -0.107545 O 46 ASP
134 C134 -3.77053 -5.72065 -1.31891 C 47 ASN
135 C135 -3.75086 -4.99876 -0.00418718 C 47 ASN
136 C136 -3.73119 -4.27687 1.31053 C 47 ASN
137 C137 -3.76525 -8.73679 -1.31347 C 48 ASP
138 C138 -3.75707 -8.00557 -0.0037925 C 48 ASP
139 C139 -3.74889 -7.27434 1.30588 C 48 ASP
140 O140 -10.8612 -5.5337 0.153145 O 49 ARG
141 O141 -9.86123 -5.53889 0.155048 O 49 ARG
142 O142 -8.86125 -5.54407 0.156951 O 49 ARG
143 O143 -7.86126 -5.54926 0.158854 O 49 ARG
144 O144 -6.86128 -5.55444 0.160757 O 49 ARG
145 C145 -11.0597 -6.52142 0.0891258 C 50 ASN
146 C146 -10.0645 -6.50103 -0.00675315 C 50 ASN
147 C147 -3.72931 -7.22524 -1.31501 C 51 ARG
148 C148 -3.74947 -6.4883 -0.00867374 C 51 ARG
149 C149 -3.76963 -5.75137 1.29767 C 51 ARG
150 O150 -3.24971 -6.49724 0.00407557 O 51 ARG
151 C151 -6.75424 -6.50272 -1.15572 C 52 GLY
152 C152 -6.73684 -5.50287 -1.15389 C 52 GLY
153 H153 -10.05 -7.5 0 H 53 GLY
154 C154 2.48831 12.0104 5.4879 C 54 ALA
155 C155 2.48132 12.3749 6.14333 C 54 ALA
156 C156 2.47433 12.7394 6.79875 C 54 ALA
157 C157 1.4884 11.9968 5.48477 C 54 ALA
158 C158 1.47443 12.7259 6.79562 C 54 ALA
159 C159 4.99543 12.005 5.49845 C 55 ARG
160 C160 4.99797 12.4247 6.12004 C 55 ARG
161 C161 5.00052 12.8444 6.74163 C 55 ARG
162 C162 5.99492 11.9768 5.51338 C 55 ARG
163 C163 6.00001 12.8162 6.75655 C 55 ARG
164 C164 3.74232 13.2979 8.00273 C 56 ASN
165 C165 3.73477 13.5784 7.30719 C 56 ASN
166 C166 3.72723 13.8589 6.61166 C 56 ASN
167 C167 3.08984 14.2281 6.7675 C 56 ASN
168 C168 4.3891 14.1942 6.7397 C 56 ASN
169 C169 2.46213 14.5879 6.91939 C 56 ASN
170 C170 5.04067 14.5204 6.86422 C 56 ASN
171 C171 3.75741 12.7369 9.39379 C 56 ASN
172 H172 3.24442 13.1159 6.54269 H 57 ASP
173 H173 4.19144 13.1037 6.45363 H 58 ASP
174 H174 4.74578 13.3006 8.00521 H 59 GLY
175 C175 3.70418 16.9338 6.61993 C 60 THY
176 C176 3.74802 16.3322 7.99332 C 60 THY
177 C177 3.79186 15.7307 9.36671 C 60 THY
178 O178 1.74624 15.3038 4.40095 O 61 ALA
179 O179 2.73949 15.3063 4.51691 O 61 ALA
180 O180 5.75083 15.3032 4.39305 O 62 ALA
181 O181 6.7488 15.2974 4.45647 O 62 ALA
182 O182 2.75266 16.068 4.5369 O 63 ALA
183 O183 3.75265 16.0636 4.53757 O 63 ALA
184 O184 4.75264 16.0592 4.53823 O 63 ALA
185 O185 5.75263 16.0548 4.5389 O 63 ALA
186 O186 6.75262 16.0505 4.53957 O 63 ALA
187 O187 2.75485 16.568 4.53534 O 63 ALA
188 O188 3.75484 16.5636 4.53601 O 63 ALA
189 O189 4.75483 16.5592 4.53668 O 63 ALA
190 O190 5.75482 16.5548 4.53734 O 63 ALA
191 O191 6.75481 16.5505 4.53801 O 63 ALA
192 O192 2.75342 16.3195 5.03612 O 63 ALA
193 O193 3.75341 16.3152 5.03678 O 63 ALA
194 O194 4.75341 16.3108 5.03745 O 63 ALA
195 O195 5.7534 16.3064 5.03812 O 63 ALA
196 O196 6.75339 16.302 5.03879 O 63 ALA
197 O197 3.74073 15.2797 8.00686 O 64 GLY
198 H198 0.5 12 5.5 H 65 GLY
199 H199 7 12 5.5 H 66 GLY
200 H200 1.75 14.3 4.4 H 67 GLY
201 H201 5.75 14.3 4.4 H 68 GLY
202 H202 4.75 16.3 8 H 69 GLY
203 O203 7.41915 8.35012 5.86381 O 70 ASP
204 O204 8.84147 8.32168 6.33942 O 70 ASP
205 C205 5.98882 8.69359 4.24884 C 71 ASN
206 C206 5.99271 9.50027 5.51345 C 71 ASN
207 C207 5.99659 10.3069 6.77807 C 71 ASN
208 C208 5.97744 5.72129 4.21535 C 72 ASP
209 C209 5.98862 6.48778 5.50468 C 72 ASP
210 C210 5.9998 7.25426 6.79401 C 72 ASP
211 O211 8.86686 9.3317 6.37594 O 73 ARG
212 O212 9.74225 9.25255 5.89906 O 73 ARG
213 O213 10.6176 9.1734 5.42217 O 73 ARG
214 O214 11.493 9.09425 4.94529 O 73 ARG
215 O215 12.3684 9.01509 4.46841 O 73 ARG
216 C216 12.2985 7.99673 5.51051 C 74 ASN
217 C217 12.3243 8.00937 4.51092 C 74 ASN
218 C218 6.36001 7.30473 4.35553 C 75 ARG
219 C219 5.97296 8.10579 5.56322 C 75 ARG
220 C220 5.58592 8.90685 6.7709 C 75 ARG
221 O221 5.49287 7.98873 5.487 O 75 ARG
222 C222 8.99831 7.98661 4.3716 C 76 GLY
223 C223 8.99617 8.98636 4.34954 C 76 GLY
224 H224 12.3 7 5.5 H 77 GLY
225 O225 -0.781599 8.08755 7.57614 O 78 ASP
226 O226 0.469961 8.05342 6.75005 O 78 ASP
227 C227 1.49133 8.80226 4.17721 C 79 ASN
228 C228 1.49331 9.51096 5.49923 C 79 ASN
229 C229 1.4953 10.2197 6.82125 C 79 ASN
230 C230 1.5135 5.91199 4.12649 C 80 ASP
231 C231 1.49499 6.49476 5.50853 C 80 ASP
232 C232 1.47647 7.07752 6.89057 C 80 ASP
233 O233 -4.73682 8.95606 6.40006 O 81 ARG
234 O234 -3.77191 8.98787 6.66067 O 81 ARG
235 O235 -2.80699 9.01969 6.92129 O 81 ARG
236 O236 -1.84207 9.0515 7.18191 O 81 ARG
237 O237 -0.877153 9.08332 7.44253 O 81 ARG
238 C238 -4.8414 7.96923 6.51514 C 82 ASN
239 C239 -4.79511 7.99626 5.51658 C 82 ASN
240 C240 0.738711 7.54794 4.67307 C 83 ARG
241 C241 1.60542 8.08496 5.77326 C 83 ARG
242 C242 2.47213 8.62199 6.87344 C 83 ARG
243 O243 2.01142 8.00428 5.4928 O 83 ARG
244 C244 -1.5001 7.99351 4.35072 C 84 GLY
245 C245 -1.48577 8.99341 4.34927 C 84 GLY
246 H246 -4.8 7 5.5 H 85 GLY
247 O247 1.16951 20.1373 9.60841 O 86 ASP
248 O248 2.47109 20.2456 8.87073 O 86 ASP
249 C249 3.73327 22.6814 6.65859 C 87 ASN
250 C250 3.75133 22.0018 7.99569 C 87 ASN
251 C251 3.76939 21.3223 9.3328 C 87 ASN
252 C252 3.74506 19.584 6.6068 C 88 ASP
253 C253 3.75508 19.0087 7.99208 C 88 ASP
254 C254 3.7651 18.4335 9.37736 C 88 ASP
255 O255 -2.66753 21.4762 9.12103 O 89 ARG
256 O256 -1.68494 21.383 9.28177 O 89 ARG
257 O257 -0.702352 21.2899 9.44252 O 89 ARG
258 O258 0.280238 21.1967 9.60326 O 89 ARG
259 O259 1.26283 21.1036 9.76401 O 89 ARG
260 C260 -2.62284 20.4868 9.01213 C 90 ASN
261 C261 -2.56449 20.4986 8.0139 C 90 ASN
262 C262 3.15801 20.9642 6.91679 C 91 ARG
263 C263 3.78682 20.4229 8.1664 C 91 ARG
264 C264 4.41563 19.8815 9.416 C 91 ARG
265 O265 4.24076 20.5035 7.97291 O 91 ARG
266 C266 0.748949 20.5024 6.8452 C 92 GLY
267 C267 0.750091 21.5024 6.84859 C 92 GLY
268 H268 -2.55 19.5 8 H 93 GLY
269 H269 0.252353 -0.00219289 -0.000169284 H 0 ALA
270 H270 2.74087 -0.00227434 0.00807264 H 1 ARG
271 H271 0.258961 0.708517 1.32076 H 0 ALA
272 H272 0.962476 1.16018 0.962306 H 3 ASP
273 H273 2.74423 0.679295 1.34428 H 1 ARG
274 H274 2.08813 1.18231 0.968461 H 4 ASP
275 H275 1.52518 1.85417 1.11486 H 2 ASN
276 H276 1.50368 1.2894 2.50431 H 2 ASN
277 H277 2.50558 1.3118 2.4902 H 5 GLY
278 H278 1.48217 0.724627 3.89376 H 2 ASN
279 H279 1.53393 3.72898 3.87739 H 6 THY
280 H280 -0.423813 3.29589 -0.0960152 H 7 ALA
281 H281 -0.392828 4.01991 -0.328438 H 9 ALA
282 H282 3.59376 3.28273 -0.10887 H 8 ALA
283 H283 3.60713 4.005 -0.338243 H 9 ALA
284 H284 1.51548 4.31809 2.49804 H 6 THY
285 H285 1.49257 3.28698 2.49888 H 10 GLY
286 H286 -1.75 0 0 H 11 GLY
287 H287 -0.747621 -0.00524231 0.00647436 H 0 ALA
288 H288 4.75 0 0 H 12 GLY
289 H289 3.74087 -0.0043758 0.00663125 H 1 ARG
290 H290 -0.5 2.3 -1.1 H 13 GLY
291 H291 -0.507568 3.30122 -1.09249 H 7 ALA
292 H292 3.5 2.3 -1.1 H 14 GLY
293 H293 3.50009 3.29109 -1.10444 H 8 ALA
294 H294 2.5 4.3 2.5 H 15 GLY
295 H295 3.74715 -2.50706 0.00872785 H 16 ASP
296 H296 2.75 -2.5 0 H 17 GLY
297 H297 6.74709 -2.49445 -0.00473573 H 16 ASP
298 H298 7.75 -2.5 0 H 18 GLY
299 H299 5.73798 -13.0189 2.2888 H 19 ASP
300 H300 5.81983 -12.0391 2.10457 H 22 ARG
301 H301 9.08918 -12.5168 -0.150011 H 22 ARG
302 H302 9.05555 -13.5165 -0.0539253 H 23 ASN
303 H303 4.49397 -12.9244 1.45603 H 19 ASP
304 H304 3.55882 -13.4156 0.373564 H 24 ARG
305 H305 10.05 -14.5 0 H 26 GLY
306 H306 10.0546 -13.5042 -0.0126019 H 23 ASN
307 H307 3.25 -12 0 H 26 GLY
308 H308 3.74945 -11.9807 -0.00593736 H 20 ASN
309 H309 3.25 -15 0 H 26 GLY
310 H310 3.75123 -15.0038 -0.00951877 H 21 ASP
311 H311 3.2453 -13.5002 -0.00662822 H 24 ARG
312 H312 4.25 -15 0 H 26 GLY
313 H313 6.75 -14.5 -1.15 H 26 GLY
314 H314 4.25 -12 0 H 26 GLY
315 H315 6.75 -11.5 -1.15 H 26 GLY
316 H316 6.74668 -13.5052 -1.15055 H 25 GLY
317 H317 6.75547 -12.5052 -1.15087 H 25 GLY
318 H318 9.74552 -6.41206 0.129082 H 27 ASP
319 H319 9.90564 -5.44911 0.344803 H 30 ARG
320 H320 13.8984 -5.53528 0.120754 H 30 ARG
321 H321 14.0487 -6.50277 -0.0435395 H 31 ASN
322 H322 8.25126 -6.39975 -0.00151966 H 27 ASP
323 H323 6.74809 -6.47545 -0.000126044 H 32 ARG
324 H324 13.05 -7.5 0 H 34 GLY
325 H325 13.0494 -6.50933 -0.00501758 H 31 ASN
326 H326 6.25 -5 0 H 34 GLY
327 H327 6.74055 -4.99345 -0.00616915 H 28 ASN
328 H328 6.25 -8 0 H 34 GLY
329 H329 6.76536 -8.01687 -0.0103905 H 29 ASP
330 H330 6.24835 -6.48998 -0.00676926 H 32 ARG
331 H331 7.25 -8 0 H 34 GLY
332 H332 9.75 -7.5 -1.15 H 34 GLY
333 H333 7.25 -5 0 H 34 GLY
334 H334 9.75 -4.5 -1.15 H 34 GLY
335 H335 9.74923 -6.5001 -1.13834 H 33 GLY
336 H336 9.75852 -5.50014 -1.13895 H 33 GLY
337 H337 6.75025 -1.81705 1.33359 H 16 ASP
338 H338 6.74157 -4.3215 1.33491 H 28 ASN
339 H339 3.75031 -1.82966 1.34705 H 16 ASP
340 H340 3.73715 -11.3385 1.34958 H 20 ASN
341 H341 -3.75277 -2.47858 -0.0100538 H 35 ASP
342 H342 -4.75 -2.5 0 H 36 GLY
343 H343 -0.75292 -2.49966 0.0116832 H 35 ASP
344 H344 0.25 -2.5 0 H 37 GLY
345 H345 -2.70726 -13.6915 2.41279 H 38 ASP
346 H346 -2.82049 -12.6979 2.46297 H 41 ARG
347 H347 -6.07469 -12.4884 0.146447 H 41 ARG
348 H348 -6.05124 -13.4913 0.0372742 H 42 ASN
349 H349 -1.50665 -13.6827 1.51364 H 38 ASP
350 H350 -0.556452 -13.5559 0.382722 H 43 ARG
351 H351 -7.05 -14.5 0 H 45 GLY
352 H352 -7.05047 -13.4961 -0.0017357 H 42 ASN
353 H353 -0.25 -12 0 H 45 GLY
354 H354 -0.745204 -11.9866 -0.00696956 H 39 ASN
355 H355 -0.25 -15 0 H 45 GLY
356 H356 -0.752201 -15.0051 -0.00912629 H 40 ASP
357 H357 -0.258015 -13.4967 -0.0140498 H 43 ARG
358 H358 -1.25 -15 0 H 45 GLY
359 H359 -3.75 -14.5 -1.15 H 45 GLY
360 H360 -1.25 -12 0 H 45 GLY
361 H361 -3.75 -11.5 -1.15 H 45 GLY
362 H362 -3.75048 -13.4974 -1.13699 H 44 GLY
363 H363 -3.74848 -12.4975 -1.15181 H 44 GLY
364 H364 -6.74346 -6.53447 0.0847702 H 46 ASP
365 H365 -6.86128 -5.55444 0.160757 H 49 ARG
366 H366 -10.8612 -5.5337 0.153145 H 49 ARG
367 H367 -11.0597 -6.52142 0.0891258 H 50 ASN
368 H368 -5.25589 -6.52207 -0.107545 H 46 ASP
369 H369 -3.74947 -6.4883 -0.00867374 H 51 ARG
370 H370 -10.05 -7.5 0 H 53 GLY
371 H371 -10.0645 -6.50103 -0.00675315 H 50 ASN
372 H372 -3.25 -5 0 H 53 GLY
373 H373 -3.75086 -4.99876 -0.00418718 H 47 ASN
374 H374 -3.25 -8 0 H 53 GLY
375 H375 -3.75707 -8.00557 -0.0037925 H 48 ASP
376 H376 -3.24971 -6.49724 0.00407557 H 51 ARG
377 H377 -4.25 -8 0 H 53 GLY
378 H378 -6.75 -7.5 -1.15 H 53 GLY
379 H379 -4.25 -5 0 H 53 GLY
380 H380 -6.75 -4.5 -1.15 H 53 GLY
381 H381 -6.75424 -6.50272 -1.15572 H 52 GLY
382 H382 -6.73684 -5.50287 -1.15389 H 52 GLY
383 H383 -3.7574 -1.77284 1.31354 H 35 ASP
384 H384 -3.73119 -4.27687 1.31053 H 47 ASN
385 H385 -0.757552 -1.79391 1.33528 H 35 ASP
386 H386 -0.748179 -11.2945 1.32383 H 39 ASN
387 H387 2.48831 12.0104 5.4879 H 54 ALA
388 H388 4.99543 12.005 5.49845 H 55 ARG
389 H389 2.47433 12.7394 6.79875 H 54 ALA
390 H390 3.24442 13.1159 6.54269 H 57 ASP
391 H391 5.00052 12.8444 6.74163 H 55 ARG
392 H392 4.19144 13.1037 6.45363 H 58 ASP
393 H393 3.72723 13.8589 6.61166 H 56 ASN
394 H394 3.74232 13.2979 8.00273 H 56 ASN
395 H395 4.74578 13.3006 8.00521 H 59 GLY
396 H396 3.75741 12.7369 9.39379 H 56 ASN
397 H397 3.79186 15.7307 9.36671 H 60 THY
398 H398 2.73949 15.3063 4.51691 H 61 ALA
399 H399 2.75266 16.068 4.5369 H 63 ALA
400 H400 6.7488 15.2974 4.45647 H 62 ALA
401 H401 6.75262 16.0505 4.53957 H 63 ALA
402 H402 3.74802 16.3322 7.99332 H 60 THY
403 H403 3.74073 15.2797 8.00686 H 64 GLY
404 H404 0.5 12 5.5 H 65 GLY
405 H405 1.4884 11.9968 5.48477 H 54 ALA
406 H406 7 12 5.5 H 66 GLY
407 H407 5.99492 11.9768 5.51338 H 55 ARG
408 H408 1.75 14.3 4.4 H 67 GLY
409 H409 1.74624 15.3038 4.40095 H 61 ALA
410 H410 5.75 14.3 4.4 H 68 GLY
411 H411 5.75083 15.3032 4.39305 H 62 ALA
412 H412 4.75 16.3 8 H 69 GLY
413 H413 8.84147 8.32168 6.33942 H 70 ASP
414 H414 8.86686 9.3317 6.37594 H 73 ARG
415 H415 12.3684 9.01509 4.46841 H 73 ARG
416 H416 12.3243 8.00937 4.51092 H 74 ASN
417 H417 7.41915 8.35012 5.86381 H 70 ASP
418 H418 5.97296 8.10579 5.56322 H 75 ARG
419 H419 12.3 7 5.5 H 77 GLY
420 H420 12.2985 7.99673 5.51051 H 74 ASN
421 H421 5.5 9.5 5.5 H 77 GLY
422 H422 5.99271 9.50027 5.51345 H 71 ASN
423 H423 5.5 6.5 5.5 H 77 GLY
424 H424 5.98862 6.48778 5.50468 H 72 ASP
425 H425 5.49287 7.98873 5.487 H 75 ARG
426 H426 6.5 6.5 5.5 H 77 GLY
427 H427 9 7 4.35 H 77 GLY
428 H428 6.5 9.5 5.5 H 77 GLY
429 H429 9 10 4.35 H 77 GLY
430 H430 8.99831 7.98661 4.3716 H 76 GLY
431 H431 8.99617 8.98636 4.34954 H 76 GLY
432 H432 -0.781599 8.08755 7.57614 H 78 ASP
433 H433 -0.877153 9.08332 7.44253 H 81 ARG
434 H434 -4.73682 8.95606 6.40006 H 81 ARG
435 H435 -4.8414 7.96923 6.51514 H 82 ASN
436 H436 0.469961 8.05342 6.75005 H 78 ASP
437 H437 1.60542 8.08496 5.77326 H 83 ARG
438 H438 -4.8 7 5.5 H 85 GLY
439 H439 -4.79511 7.99626 5.51658 H 82 ASN
440 H440 2 9.5 5.5 H 85 GLY
441 H441 1.49331 9.51096 5.49923 H 79 ASN
442 H442 2 6.5 5.5 H 85 GLY
443 H443 1.49499 6.49476 5.50853 H 80 ASP
444 H444 2.01142 8.00428 5.4928 H 83 ARG
445 H445 1 6.5 5.5 H 85 GLY
446 H446 -1.5 7 4.35 H 85 GLY
447 H447 1 9.5 5.5 H 85 GLY
448 H448 -1.5 10 4.35 H 85 GLY
449 H449 -1.5001 7.99351 4.35072 H 84 GLY
450 H450 -1.48577 8.99341 4.34927 H 84 GLY
451 H451 1.16951 20.1373 9.60841 H 86 ASP
452 H452 1.26283 21.1036 9.76401 H 89 ARG
453 H453 -2.66753 21.4762 9.12103 H 89 ARG
454 H454 -2.62284 20.4868 9.01213 H 90 ASN
455 H455 2.47109 20.2456 8.87073 H 86 ASP
456 H456 3.78682 20.4229 8.1664 H 91 ARG
457 H457 -2.55 19.5 8 H 93 GLY
458 H458 -2.56449 20.4986 8.0139 H 90 ASN
459 H459 4.25 22 8 H 93 GLY
460 H460 3.75133 22.0018 7.99569 H 87 ASN
461 H461 4.25 19 8 H 93 GLY
462 H462 3.75508 19.0087 7.99208 H 88 ASP
463 H463 4.24076 20.5035 7.97291 H 91 ARG
464 H464 3.25 19 8 H 93 GLY
465 H465 0.75 19.5 6.85 H 93 GLY
466 H466 3.25 22 8 H 93 GLY
467 H467 0.75 22.5 6.85 H 93 GLY
468 H468 0.748949 20.5024 6.8452 H 92 GLY
469 H469 0.750091 21.5024 6.84859 H 92 GLY
470 H470 -0.741012 0.705468 1.3274 H 0 ALA
471 H471 3.74422 0.677193 1.34284 H 1 ARG
472 H472 1.5135 5.91199 4.12649 H 80 ASP
473 H473 1.47443 12.7259 6.79562 H 54 ALA
474 H474 1.4953 10.2197 6.82125 H 79 ASN
475 H475 6.00001 12.8162 6.75655 H 55 ARG
476 H476 5.99659 10.3069 6.77807 H 71 ASN
477 H477 3.7651 18.4335 9.37736 H 88 ASP
@<TRIPOS>BOND
1 1 2 2
2 1 4 2
3 2 3 2
4 3 5 2
5 6 7 2
6 6 9 2
7 7 8 2
8 8 10 2
9 11 12 2
10 11 18 2
11 12 13 2
12 13 14 2
13 13 15 2
14 14 16 2
15 15 17 2
16 22 23 2
17 23 24 2
18 25 26 2
19 27 28 2
20 29 34 2
21 29 39 2
22 29 30 2
23 30 35 2
24 30 40 2
25 30 31 2
26 31 36 2
27 31 41 2
28 31 32 2
29 32 37 2
30 32 42 2
31 32 33 2
32 33 38 2
33 33 43 2
34 50 51 2
35 50 53 2
36 51 52 2
37 53 54 2
38 54 55 2
39 58 59 2
40 60 61 2
41 61 62 2
42 63 64 2
43 64 65 2
44 66 67 2
45 67 68 2
46 68 69 2
47 69 70 2
48 71 72 2
49 73 74 2
50 74 76 2
51 74 75 2
52 77 78 2
53 80 81 2
54 82 83 2
55 83 84 2
56 85 86 2
57 86 87 2
58 88 89 2
59 89 90 2
60 90 91 2
61 91 92 2
62 93 94 2
63 95 96 2
64 96 98 2
65 96 97 2
66 99 100 2
67 102 103 2
68 102 105 2
69 103 104 2
70 105 106 2
71 106 107 2
72 110 111 2
73 112 113 2
74 113 114 2
75 115 116 2
76 116 117 2
77 118 119 2
78 119 120 2
79 120 121 2
80 121 122 2
81 123 124 2
82 125 126 2
83 126 128 2
84 126 127 2
85 129 130 2
86 132 133 2
87 134 135 2
88 135 136 2
89 137 138 2
90 138 139 2
91 140 141 2
92 141 142 2
93 142 143 2
94 143 144 2
95 145 146 2
96 147 148 2
97 148 150 2
98 148 149 2
99 151 152 2
100 154 155 2
101 154 157 2
102 155 156 2
103 156 158 2
104 159 160 2
105 159 162 2
106 160 161 2
107 161 163 2
108 164 165 2
109 164 171 2
110 165 166 2
111 166 167 2
112 166 168 2
113 167 169 2
114 168 170 2
115 175 176 2
116 176 177 2
117 178 179 2
118 180 181 2
119 182 187 2
120 182 192 2
121 182 183 2
122 183 188 2
123 183 193 2
124 183 184 2
125 184 189 2
126 184 194 2
127 184 185 2
128 185 190 2
129 185 195 2
130 185 186 2
131 186 191 2
132 186 196 2
133 203 204 2
134 205 206 2
135 206 207 2
136 208 209 2
137 209 210 2
138 211 212 2
139 212 213 2
140 213 214 2
141 214 215 2
142 216 217 2
143 218 219 2
144 219 221 2
145 219 220 2
146 222 223 2
147 225 226 2
148 227 228 2
149 228 229 2
150 230 231 2
151 231 232 2
152 233 234 2
153 234 235 2
154 235 236 2
155 236 237 2
156 238 239 2
157 240 241 2
158 241 243 2
159 241 242 2
160 244 245 2
161 247 248 2
162 249 250 2
163 250 251 2
164 252 253 2
165 253 254 2
166 255 256 2
167 256 257 2
168 257 258 2
169 258 259 2
170 260 261 2
171 262 263 2
172 263 265 2
173 263 264 2
174 266 267 2
