#
#
#

#
#

@<TRIPOS>MOLECULE
Panda
801 530
SMALL
NO CHARGES


@<TRIPOS>ATOM
1 C1 0.25 0 0 C 0 ALA
2 C2 0.25 0 0.75 C 0 ALA
3 C3 0.25 0 1.5 C 0 ALA
4 C4 -0.75 0 0 C 0 ALA
5 C5 -0.75 0 1.5 C 0 ALA
6 C6 2.75 0 0 C 1 ARG
7 C7 2.75 0 0.75 C 1 ARG
8 C8 2.75 0 1.5 C 1 ARG
9 C9 3.75 0 0 C 1 ARG
10 C10 3.75 0 1.5 C 1 ARG
11 C11 1.5 1.3 2.5 C 2 ASN
12 C12 1.5 1.3 1.75 C 2 ASN
13 C13 1.5 1.3 0.999999 C 2 ASN
14 C14 0.849999 1.68 1 C 2 ASN
15 C15 2.15 1.68 1 C 2 ASN
16 C16 0.209999 2.05 0.999999 C 2 ASN
17 C17 2.79 2.05 0.999999 C 2 ASN
18 C18 1.5 1.3 4 C 2 ASN
19 H19 0.875 0.65 1.25 H 3 ASP
20 H20 2.125 0.65 1.25 H 4 ASP
21 H21 2.5 1.3 2.5 H 5 GLY
22 C22 1.5 4.3 1 C 6 THY
23 C23 1.5 4.3 2.5 C 6 THY
24 C24 1.5 4.3 4 C 6 THY
25 O25 -0.5 3.3 -1.1 O 7 ALA
26 O26 0.5 3.3 -1.1 O 7 ALA
27 O27 3.5 3.3 -1.1 O 8 ALA
28 O28 4.5 3.3 -1.1 O 8 ALA
29 O29 0.499999 4.05 -1.1 O 9 ALA
30 O30 1.5 4.05 -1.1 O 9 ALA
31 O31 2.5 4.05 -1.1 O 9 ALA
32 O32 3.5 4.05 -1.1 O 9 ALA
33 O33 4.5 4.05 -1.1 O 9 ALA
34 O34 0.499999 4.55 -1.1 O 9 ALA
35 O35 1.5 4.55 -1.1 O 9 ALA
36 O36 2.5 4.55 -1.1 O 9 ALA
37 O37 3.5 4.55 -1.1 O 9 ALA
38 O38 4.5 4.55 -1.1 O 9 ALA
39 O39 0.499999 4.3 -0.6 O 9 ALA
40 O40 1.5 4.3 -0.6 O 9 ALA
41 O41 2.5 4.3 -0.6 O 9 ALA
42 O42 3.5 4.3 -0.6 O 9 ALA
43 O43 4.5 4.3 -0.6 O 9 ALA
44 O44 1.5 3.3 2.5 O 10 GLY
45 H45 -1.75 0 0 H 11 GLY
46 H46 4.75 0 0 H 12 GLY
47 H47 -0.5 2.3 -1.1 H 13 GLY
48 H48 3.5 2.3 -1.1 H 14 GLY
49 H49 2.5 4.3 2.5 H 15 GLY
50 C50 3.75 -2.5 -1.5 C 16 ASP
51 C51 3.75 -2.5 0 C 16 ASP
52 C52 3.75 -2.5 1.5 C 16 ASP
53 C53 6.75 -2.5 -1.5 C 16 ASP
54 C54 6.75 -2.5 0 C 16 ASP
55 C55 6.75 -2.5 1.5 C 16 ASP
56 H56 2.75 -2.5 0 H 17 GLY
57 H57 7.75 -2.5 0 H 18 GLY
58 O58 5.25 -13.5 0 O 19 ASP
59 O59 6.75 -13.5 0 O 19 ASP
60 C60 3.75 -12 -1.5 C 20 ASN
61 C61 3.75 -12 0 C 20 ASN
62 C62 3.75 -12 1.5 C 20 ASN
63 C63 3.75 -15 -1.5 C 21 ASP
64 C64 3.75 -15 0 C 21 ASP
65 C65 3.75 -15 1.5 C 21 ASP
66 O66 6.75 -12.5 0 O 22 ARG
67 O67 7.75 -12.5 0 O 22 ARG
68 O68 8.75 -12.5 0 O 22 ARG
69 O69 9.75 -12.5 0 O 22 ARG
70 O70 10.75 -12.5 0 O 22 ARG
71 C71 10.05 -13.5 0 C 23 ASN
72 C72 11.05 -13.5 0 C 23 ASN
73 C73 3.75 -13.5 -1.5 C 24 ARG
74 C74 3.75 -13.5 0 C 24 ARG
75 C75 3.75 -13.5 1.5 C 24 ARG
76 O76 3.25 -13.5 0 O 24 ARG
77 C77 6.75 -13.5 -1.15 C 25 GLY
78 C78 6.75 -12.5 -1.15 C 25 GLY
79 H79 10.05 -14.5 0 H 26 GLY
80 O80 8.25 -6.5 0 O 27 ASP
81 O81 9.75 -6.5 0 O 27 ASP
82 C82 6.75 -5 -1.5 C 28 ASN
83 C83 6.75 -5 0 C 28 ASN
84 C84 6.75 -5 1.5 C 28 ASN
85 C85 6.75 -8 -1.5 C 29 ASP
86 C86 6.75 -8 0 C 29 ASP
87 C87 6.75 -8 1.5 C 29 ASP
88 O88 9.75 -5.5 0 O 30 ARG
89 O89 10.75 -5.5 0 O 30 ARG
90 O90 11.75 -5.5 0 O 30 ARG
91 O91 12.75 -5.5 0 O 30 ARG
92 O92 13.75 -5.5 0 O 30 ARG
93 C93 13.05 -6.5 0 C 31 ASN
94 C94 14.05 -6.5 0 C 31 ASN
95 C95 6.75 -6.5 -1.5 C 32 ARG
96 C96 6.75 -6.5 0 C 32 ARG
97 C97 6.75 -6.5 1.5 C 32 ARG
98 O98 6.25 -6.5 0 O 32 ARG
99 C99 9.75 -6.5 -1.15 C 33 GLY
100 C100 9.75 -5.5 -1.15 C 33 GLY
101 H101 13.05 -7.5 0 H 34 GLY
102 C102 -3.75 -2.5 -1.5 C 35 ASP
103 C103 -3.75 -2.5 0 C 35 ASP
104 C104 -3.75 -2.5 1.5 C 35 ASP
105 C105 -0.75 -2.5 -1.5 C 35 ASP
106 C106 -0.75 -2.5 0 C 35 ASP
107 C107 -0.75 -2.5 1.5 C 35 ASP
108 H108 -4.75 -2.5 0 H 36 GLY
109 H109 0.25 -2.5 0 H 37 GLY
110 O110 -3.75 -13.5 0 O 38 ASP
111 O111 -2.25 -13.5 0 O 38 ASP
112 C112 -0.75 -12 -1.5 C 39 ASN
113 C113 -0.75 -12 0 C 39 ASN
114 C114 -0.75 -12 1.5 C 39 ASN
115 C115 -0.75 -15 -1.5 C 40 ASP
116 C116 -0.75 -15 0 C 40 ASP
117 C117 -0.75 -15 1.5 C 40 ASP
118 O118 -7.75 -12.5 0 O 41 ARG
119 O119 -6.75 -12.5 0 O 41 ARG
120 O120 -5.75 -12.5 0 O 41 ARG
121 O121 -4.75 -12.5 0 O 41 ARG
122 O122 -3.75 -12.5 0 O 41 ARG
123 C123 -8.05 -13.5 0 C 42 ASN
124 C124 -7.05 -13.5 0 C 42 ASN
125 C125 -0.75 -13.5 -1.5 C 43 ARG
126 C126 -0.75 -13.5 0 C 43 ARG
127 C127 -0.75 -13.5 1.5 C 43 ARG
128 O128 -0.25 -13.5 0 O 43 ARG
129 C129 -3.75 -13.5 -1.15 C 44 GLY
130 C130 -3.75 -12.5 -1.15 C 44 GLY
131 H131 -7.05 -14.5 0 H 45 GLY
132 O132 -6.75 -6.5 0 O 46 ASP
133 O133 -5.25 -6.5 0 O 46 ASP
134 C134 -3.75 -5 -1.5 C 47 ASN
135 C135 -3.75 -5 0 C 47 ASN
136 C136 -3.75 -5 1.5 C 47 ASN
137 C137 -3.75 -8 -1.5 C 48 ASP
138 C138 -3.75 -8 0 C 48 ASP
139 C139 -3.75 -8 1.5 C 48 ASP
140 O140 -10.75 -5.5 0 O 49 ARG
141 O141 -9.75 -5.5 0 O 49 ARG
142 O142 -8.75 -5.5 0 O 49 ARG
143 O143 -7.75 -5.5 0 O 49 ARG
144 O144 -6.75 -5.5 0 O 49 ARG
145 C145 -11.05 -6.5 0 C 50 ASN
146 C146 -10.05 -6.5 0 C 50 ASN
147 C147 -3.75 -6.5 -1.5 C 51 ARG
148 C148 -3.75 -6.5 0 C 51 ARG
149 C149 -3.75 -6.5 1.5 C 51 ARG
150 O150 -3.25 -6.5 0 O 51 ARG
151 C151 -6.75 -6.5 -1.15 C 52 GLY
152 C152 -6.75 -5.5 -1.15 C 52 GLY
153 H153 -10.05 -7.5 0 H 53 GLY
154 C154 2.5 12 5.5 C 54 ALA
155 C155 2.5 12 6.25 C 54 ALA
156 C156 2.5 12 7 C 54 ALA
157 C157 1.5 12 5.5 C 54 ALA
158 C158 1.5 12 7 C 54 ALA
159 C159 5 12 5.5 C 55 ARG
160 C160 5 12 6.25 C 55 ARG
161 C161 5 12 7 C 55 ARG
162 C162 6 12 5.5 C 55 ARG
163 C163 6 12 7 C 55 ARG
164 C164 3.75 13.3 8 C 56 ASN
165 C165 3.75 13.3 7.25 C 56 ASN
166 C166 3.75 13.3 6.5 C 56 ASN
167 C167 3.1 13.68 6.5 C 56 ASN
168 C168 4.4 13.68 6.5 C 56 ASN
169 C169 2.46 14.05 6.5 C 56 ASN
170 C170 5.04 14.05 6.5 C 56 ASN
171 C171 3.75 13.3 9.5 C 56 ASN
172 H172 3.125 12.65 6.75 H 57 ASP
173 H173 4.375 12.65 6.75 H 58 ASP
174 H174 4.75 13.3 8 H 59 GLY
175 C175 3.75 16.3 6.5 C 60 THY
176 C176 3.75 16.3 8 C 60 THY
177 C177 3.75 16.3 9.5 C 60 THY
178 O178 1.75 15.3 4.4 O 61 ALA
179 O179 2.75 15.3 4.4 O 61 ALA
180 O180 5.75 15.3 4.4 O 62 ALA
181 O181 6.75 15.3 4.4 O 62 ALA
182 O182 2.75 16.05 4.4 O 63 ALA
183 O183 3.75 16.05 4.4 O 63 ALA
184 O184 4.75 16.05 4.4 O 63 ALA
185 O185 5.75 16.05 4.4 O 63 ALA
186 O186 6.75 16.05 4.4 O 63 ALA
187 O187 2.75 16.55 4.4 O 63 ALA
188 O188 3.75 16.55 4.4 O 63 ALA
189 O189 4.75 16.55 4.4 O 63 ALA
190 O190 5.75 16.55 4.4 O 63 ALA
191 O191 6.75 16.55 4.4 O 63 ALA
192 O192 2.75 16.3 4.9 O 63 ALA
193 O193 3.75 16.3 4.9 O 63 ALA
194 O194 4.75 16.3 4.9 O 63 ALA
195 O195 5.75 16.3 4.9 O 63 ALA
196 O196 6.75 16.3 4.9 O 63 ALA
197 O197 3.75 15.3 8 O 64 GLY
198 H198 0.5 12 5.5 H 65 GLY
199 H199 7 12 5.5 H 66 GLY
200 H200 1.75 14.3 4.4 H 67 GLY
201 H201 5.75 14.3 4.4 H 68 GLY
202 H202 4.75 16.3 8 H 69 GLY
203 O203 7.5 8 5.5 O 70 ASP
204 O204 9 8 5.5 O 70 ASP
205 C205 6 9.5 4 C 71 ASN
206 C206 6 9.5 5.5 C 71 ASN
207 C207 6 9.5 7 C 71 ASN
208 C208 6 6.5 4 C 72 ASP
209 C209 6 6.5 5.5 C 72 ASP
210 C210 6 6.5 7 C 72 ASP
211 O211 9 9 5.5 O 73 ARG
212 O212 10 9 5.5 O 73 ARG
213 O213 11 9 5.5 O 73 ARG
214 O214 12 9 5.5 O 73 ARG
215 O215 13 9 5.5 O 73 ARG
216 C216 12.3 8 5.5 C 74 ASN
217 C217 13.3 8 5.5 C 74 ASN
218 C218 6 8 4 C 75 ARG
219 C219 6 8 5.5 C 75 ARG
220 C220 6 8 7 C 75 ARG
221 O221 5.5 8 5.5 O 75 ARG
222 C222 9 8 4.35 C 76 GLY
223 C223 9 9 4.35 C 76 GLY
224 H224 12.3 7 5.5 H 77 GLY
225 O225 -1.5 8 5.5 O 78 ASP
226 O226 0 8 5.5 O 78 ASP
227 C227 1.5 9.5 4 C 79 ASN
228 C228 1.5 9.5 5.5 C 79 ASN
229 C229 1.5 9.5 7 C 79 ASN
230 C230 1.5 6.5 4 C 80 ASP
231 C231 1.5 6.5 5.5 C 80 ASP
232 C232 1.5 6.5 7 C 80 ASP
233 O233 -5.5 9 5.5 O 81 ARG
234 O234 -4.5 9 5.5 O 81 ARG
235 O235 -3.5 9 5.5 O 81 ARG
236 O236 -2.5 9 5.5 O 81 ARG
237 O237 -1.5 9 5.5 O 81 ARG
238 C238 -5.8 8 5.5 C 82 ASN
239 C239 -4.8 8 5.5 C 82 ASN
240 C240 1.5 8 4 C 83 ARG
241 C241 1.5 8 5.5 C 83 ARG
242 C242 1.5 8 7 C 83 ARG
243 O243 2 8 5.5 O 83 ARG
244 C244 -1.5 8 4.35 C 84 GLY
245 C245 -1.5 9 4.35 C 84 GLY
246 H246 -4.8 7 5.5 H 85 GLY
247 C247 4.75 24 11 C 86 ALA
248 C248 4.75 24 11.75 C 86 ALA
249 C249 4.75 24 12.5 C 86 ALA
250 C250 3.75 24 11 C 86 ALA
251 C251 3.75 24 12.5 C 86 ALA
252 C252 7.25 24 11 C 87 ARG
253 C253 7.25 24 11.75 C 87 ARG
254 C254 7.25 24 12.5 C 87 ARG
255 C255 8.25 24 11 C 87 ARG
256 C256 8.25 24 12.5 C 87 ARG
257 C257 6 25.3 13.5 C 88 ASN
258 C258 6 25.3 12.75 C 88 ASN
259 C259 6 25.3 12 C 88 ASN
260 C260 5.35 25.68 12 C 88 ASN
261 C261 6.65 25.68 12 C 88 ASN
262 C262 4.71 26.05 12 C 88 ASN
263 C263 7.29 26.05 12 C 88 ASN
264 C264 6 25.3 15 C 88 ASN
265 H265 5.375 24.65 12.25 H 89 ASP
266 H266 6.625 24.65 12.25 H 90 ASP
267 H267 7 25.3 13.5 H 91 GLY
268 C268 6 28.3 12 C 92 THY
269 C269 6 28.3 13.5 C 92 THY
270 C270 6 28.3 15 C 92 THY
271 O271 4 27.3 9.9 O 93 ALA
272 O272 5 27.3 9.9 O 93 ALA
273 O273 8 27.3 9.9 O 94 ALA
274 O274 9 27.3 9.9 O 94 ALA
275 O275 5 28.05 9.9 O 95 ALA
276 O276 6 28.05 9.9 O 95 ALA
277 O277 7 28.05 9.9 O 95 ALA
278 O278 8 28.05 9.9 O 95 ALA
279 O279 9 28.05 9.9 O 95 ALA
280 O280 5 28.55 9.9 O 95 ALA
281 O281 6 28.55 9.9 O 95 ALA
282 O282 7 28.55 9.9 O 95 ALA
283 O283 8 28.55 9.9 O 95 ALA
284 O284 9 28.55 9.9 O 95 ALA
285 O285 5 28.3 10.4 O 95 ALA
286 O286 6 28.3 10.4 O 95 ALA
287 O287 7 28.3 10.4 O 95 ALA
288 O288 8 28.3 10.4 O 95 ALA
289 O289 9 28.3 10.4 O 95 ALA
290 O290 6 27.3 13.5 O 96 GLY
291 H291 2.75 24 11 H 97 GLY
292 H292 9.25 24 11 H 98 GLY
293 H293 4 26.3 9.9 H 99 GLY
294 H294 8 26.3 9.9 H 100 GLY
295 H295 7 28.3 13.5 H 101 GLY
296 O296 9.75 20 11 O 102 ASP
297 O297 11.25 20 11 O 102 ASP
298 C298 8.25 21.5 9.5 C 103 ASN
299 C299 8.25 21.5 11 C 103 ASN
300 C300 8.25 21.5 12.5 C 103 ASN
301 C301 8.25 18.5 9.5 C 104 ASP
302 C302 8.25 18.5 11 C 104 ASP
303 C303 8.25 18.5 12.5 C 104 ASP
304 O304 11.25 21 11 O 105 ARG
305 O305 12.25 21 11 O 105 ARG
306 O306 13.25 21 11 O 105 ARG
307 O307 14.25 21 11 O 105 ARG
308 O308 15.25 21 11 O 105 ARG
309 C309 14.55 20 11 C 106 ASN
310 C310 15.55 20 11 C 106 ASN
311 C311 8.25 20 9.5 C 107 ARG
312 C312 8.25 20 11 C 107 ARG
313 C313 8.25 20 12.5 C 107 ARG
314 O314 7.75 20 11 O 107 ARG
315 C315 11.25 20 9.85 C 108 GLY
316 C316 11.25 21 9.85 C 108 GLY
317 H317 14.55 19 11 H 109 GLY
318 O318 0.75 20 11 O 110 ASP
319 O319 2.25 20 11 O 110 ASP
320 C320 3.75 21.5 9.5 C 111 ASN
321 C321 3.75 21.5 11 C 111 ASN
322 C322 3.75 21.5 12.5 C 111 ASN
323 C323 3.75 18.5 9.5 C 112 ASP
324 C324 3.75 18.5 11 C 112 ASP
325 C325 3.75 18.5 12.5 C 112 ASP
326 O326 -3.25 21 11 O 113 ARG
327 O327 -2.25 21 11 O 113 ARG
328 O328 -1.25 21 11 O 113 ARG
329 O329 -0.25 21 11 O 113 ARG
330 O330 0.75 21 11 O 113 ARG
331 C331 -3.55 20 11 C 114 ASN
332 C332 -2.55 20 11 C 114 ASN
333 C333 3.75 20 9.5 C 115 ARG
334 C334 3.75 20 11 C 115 ARG
335 C335 3.75 20 12.5 C 115 ARG
336 O336 4.25 20 11 O 115 ARG
337 C337 0.75 20 9.85 C 116 GLY
338 C338 0.75 21 9.85 C 116 GLY
339 H339 -2.55 19 11 H 117 GLY
340 C340 7 36 16.5 C 118 ALA
341 C341 7 36 17.25 C 118 ALA
342 C342 7 36 18 C 118 ALA
343 C343 6 36 16.5 C 118 ALA
344 C344 6 36 18 C 118 ALA
345 C345 9.5 36 16.5 C 119 ARG
346 C346 9.5 36 17.25 C 119 ARG
347 C347 9.5 36 18 C 119 ARG
348 C348 10.5 36 16.5 C 119 ARG
349 C349 10.5 36 18 C 119 ARG
350 C350 8.25 37.3 19 C 120 ASN
351 C351 8.25 37.3 18.25 C 120 ASN
352 C352 8.25 37.3 17.5 C 120 ASN
353 C353 7.6 37.68 17.5 C 120 ASN
354 C354 8.9 37.68 17.5 C 120 ASN
355 C355 6.96 38.05 17.5 C 120 ASN
356 C356 9.54 38.05 17.5 C 120 ASN
357 C357 8.25 37.3 20.5 C 120 ASN
358 H358 7.625 36.65 17.75 H 121 ASP
359 H359 8.875 36.65 17.75 H 122 ASP
360 H360 9.25 37.3 19 H 123 GLY
361 C361 8.25 40.3 17.5 C 124 THY
362 C362 8.25 40.3 19 C 124 THY
363 C363 8.25 40.3 20.5 C 124 THY
364 O364 6.25 39.3 15.4 O 125 ALA
365 O365 7.25 39.3 15.4 O 125 ALA
366 O366 10.25 39.3 15.4 O 126 ALA
367 O367 11.25 39.3 15.4 O 126 ALA
368 O368 7.25 40.05 15.4 O 127 ALA
369 O369 8.25 40.05 15.4 O 127 ALA
370 O370 9.25 40.05 15.4 O 127 ALA
371 O371 10.25 40.05 15.4 O 127 ALA
372 O372 11.25 40.05 15.4 O 127 ALA
373 O373 7.25 40.55 15.4 O 127 ALA
374 O374 8.25 40.55 15.4 O 127 ALA
375 O375 9.25 40.55 15.4 O 127 ALA
376 O376 10.25 40.55 15.4 O 127 ALA
377 O377 11.25 40.55 15.4 O 127 ALA
378 O378 7.25 40.3 15.9 O 127 ALA
379 O379 8.25 40.3 15.9 O 127 ALA
380 O380 9.25 40.3 15.9 O 127 ALA
381 O381 10.25 40.3 15.9 O 127 ALA
382 O382 11.25 40.3 15.9 O 127 ALA
383 O383 8.25 39.3 19 O 128 GLY
384 H384 5 36 16.5 H 129 GLY
385 H385 11.5 36 16.5 H 130 GLY
386 H386 6.25 38.3 15.4 H 131 GLY
387 H387 10.25 38.3 15.4 H 132 GLY
388 H388 9.25 40.3 19 H 133 GLY
389 O389 12 32 16.5 O 134 ASP
390 O390 13.5 32 16.5 O 134 ASP
391 C391 10.5 33.5 15 C 135 ASN
392 C392 10.5 33.5 16.5 C 135 ASN
393 C393 10.5 33.5 18 C 135 ASN
394 C394 10.5 30.5 15 C 136 ASP
395 C395 10.5 30.5 16.5 C 136 ASP
396 C396 10.5 30.5 18 C 136 ASP
397 O397 13.5 33 16.5 O 137 ARG
398 O398 14.5 33 16.5 O 137 ARG
399 O399 15.5 33 16.5 O 137 ARG
400 O400 16.5 33 16.5 O 137 ARG
401 O401 17.5 33 16.5 O 137 ARG
402 C402 16.8 32 16.5 C 138 ASN
403 C403 17.8 32 16.5 C 138 ASN
404 C404 10.5 32 15 C 139 ARG
405 C405 10.5 32 16.5 C 139 ARG
406 C406 10.5 32 18 C 139 ARG
407 O407 10 32 16.5 O 139 ARG
408 C408 13.5 32 15.35 C 140 GLY
409 C409 13.5 33 15.35 C 140 GLY
410 H410 16.8 31 16.5 H 141 GLY
411 O411 3 32 16.5 O 142 ASP
412 O412 4.5 32 16.5 O 142 ASP
413 C413 6 33.5 15 C 143 ASN
414 C414 6 33.5 16.5 C 143 ASN
415 C415 6 33.5 18 C 143 ASN
416 C416 6 30.5 15 C 144 ASP
417 C417 6 30.5 16.5 C 144 ASP
418 C418 6 30.5 18 C 144 ASP
419 O419 -1 33 16.5 O 145 ARG
420 O420 0 33 16.5 O 145 ARG
421 O421 1 33 16.5 O 145 ARG
422 O422 2 33 16.5 O 145 ARG
423 O423 3 33 16.5 O 145 ARG
424 C424 -1.3 32 16.5 C 146 ASN
425 C425 -0.3 32 16.5 C 146 ASN
426 C426 6 32 15 C 147 ARG
427 C427 6 32 16.5 C 147 ARG
428 C428 6 32 18 C 147 ARG
429 O429 6.5 32 16.5 O 147 ARG
430 C430 3 32 15.35 C 148 GLY
431 C431 3 33 15.35 C 148 GLY
432 H432 -0.3 31 16.5 H 149 GLY
433 O433 5.25 44.5 19 O 150 ASP
434 O434 6.75 44.5 19 O 150 ASP
435 C435 8.25 46 17.5 C 151 ASN
436 C436 8.25 46 19 C 151 ASN
437 C437 8.25 46 20.5 C 151 ASN
438 C438 8.25 43 17.5 C 152 ASP
439 C439 8.25 43 19 C 152 ASP
440 C440 8.25 43 20.5 C 152 ASP
441 O441 1.25 45.5 19 O 153 ARG
442 O442 2.25 45.5 19 O 153 ARG
443 O443 3.25 45.5 19 O 153 ARG
444 O444 4.25 45.5 19 O 153 ARG
445 O445 5.25 45.5 19 O 153 ARG
446 C446 0.95 44.5 19 C 154 ASN
447 C447 1.95 44.5 19 C 154 ASN
448 C448 8.25 44.5 17.5 C 155 ARG
449 C449 8.25 44.5 19 C 155 ARG
450 C450 8.25 44.5 20.5 C 155 ARG
451 O451 8.75 44.5 19 O 155 ARG
452 C452 5.25 44.5 17.85 C 156 GLY
453 C453 5.25 45.5 17.85 C 156 GLY
454 H454 1.95 43.5 19 H 157 GLY
455 H455 0.25 0 0 H 0 ALA
456 H456 2.75 0 0 H 1 ARG
457 H457 0.25 0 1.5 H 0 ALA
458 H458 0.875 0.65 1.25 H 3 ASP
459 H459 2.75 0 1.5 H 1 ARG
460 H460 2.125 0.65 1.25 H 4 ASP
461 H461 1.5 1.3 0.999999 H 2 ASN
462 H462 1.5 1.3 2.5 H 2 ASN
463 H463 2.5 1.3 2.5 H 5 GLY
464 H464 1.5 1.3 4 H 2 ASN
465 H465 1.5 4.3 4 H 6 THY
466 H466 0.5 3.3 -1.1 H 7 ALA
467 H467 0.499999 4.05 -1.1 H 9 ALA
468 H468 4.5 3.3 -1.1 H 8 ALA
469 H469 4.5 4.05 -1.1 H 9 ALA
470 H470 1.5 4.3 2.5 H 6 THY
471 H471 1.5 3.3 2.5 H 10 GLY
472 H472 -1.75 0 0 H 11 GLY
473 H473 -0.75 0 0 H 0 ALA
474 H474 4.75 0 0 H 12 GLY
475 H475 3.75 0 0 H 1 ARG
476 H476 -0.5 2.3 -1.1 H 13 GLY
477 H477 -0.5 3.3 -1.1 H 7 ALA
478 H478 3.5 2.3 -1.1 H 14 GLY
479 H479 3.5 3.3 -1.1 H 8 ALA
480 H480 2.5 4.3 2.5 H 15 GLY
481 H481 3.75 -2.5 0 H 16 ASP
482 H482 2.75 -2.5 0 H 17 GLY
483 H483 6.75 -2.5 0 H 16 ASP
484 H484 7.75 -2.5 0 H 18 GLY
485 H485 6.75 -13.5 0 H 19 ASP
486 H486 6.75 -12.5 0 H 22 ARG
487 H487 10.75 -12.5 0 H 22 ARG
488 H488 11.05 -13.5 0 H 23 ASN
489 H489 5.25 -13.5 0 H 19 ASP
490 H490 3.75 -13.5 0 H 24 ARG
491 H491 10.05 -14.5 0 H 26 GLY
492 H492 10.05 -13.5 0 H 23 ASN
493 H493 3.25 -12 0 H 26 GLY
494 H494 3.75 -12 0 H 20 ASN
495 H495 3.25 -15 0 H 26 GLY
496 H496 3.75 -15 0 H 21 ASP
497 H497 3.25 -13.5 0 H 24 ARG
498 H498 4.25 -15 0 H 26 GLY
499 H499 6.75 -14.5 -1.15 H 26 GLY
500 H500 4.25 -12 0 H 26 GLY
501 H501 6.75 -11.5 -1.15 H 26 GLY
502 H502 6.75 -13.5 -1.15 H 25 GLY
503 H503 6.75 -12.5 -1.15 H 25 GLY
504 H504 9.75 -6.5 0 H 27 ASP
505 H505 9.75 -5.5 0 H 30 ARG
506 H506 13.75 -5.5 0 H 30 ARG
507 H507 14.05 -6.5 0 H 31 ASN
508 H508 8.25 -6.5 0 H 27 ASP
509 H509 6.75 -6.5 0 H 32 ARG
510 H510 13.05 -7.5 0 H 34 GLY
511 H511 13.05 -6.5 0 H 31 ASN
512 H512 6.25 -5 0 H 34 GLY
513 H513 6.75 -5 0 H 28 ASN
514 H514 6.25 -8 0 H 34 GLY
515 H515 6.75 -8 0 H 29 ASP
516 H516 6.25 -6.5 0 H 32 ARG
517 H517 7.25 -8 0 H 34 GLY
518 H518 9.75 -7.5 -1.15 H 34 GLY
519 H519 7.25 -5 0 H 34 GLY
520 H520 9.75 -4.5 -1.15 H 34 GLY
521 H521 9.75 -6.5 -1.15 H 33 GLY
522 H522 9.75 -5.5 -1.15 H 33 GLY
523 H523 6.75 -2.5 1.5 H 16 ASP
524 H524 6.75 -5 1.5 H 28 ASN
525 H525 3.75 -2.5 1.5 H 16 ASP
526 H526 3.75 -12 1.5 H 20 ASN
527 H527 -3.75 -2.5 0 H 35 ASP
528 H528 -4.75 -2.5 0 H 36 GLY
529 H529 -0.75 -2.5 0 H 35 ASP
530 H530 0.25 -2.5 0 H 37 GLY
531 H531 -3.75 -13.5 0 H 38 ASP
532 H532 -3.75 -12.5 0 H 41 ARG
533 H533 -7.75 -12.5 0 H 41 ARG
534 H534 -8.05 -13.5 0 H 42 ASN
535 H535 -2.25 -13.5 0 H 38 ASP
536 H536 -0.75 -13.5 0 H 43 ARG
537 H537 -7.05 -14.5 0 H 45 GLY
538 H538 -7.05 -13.5 0 H 42 ASN
539 H539 -0.25 -12 0 H 45 GLY
540 H540 -0.75 -12 0 H 39 ASN
541 H541 -0.25 -15 0 H 45 GLY
542 H542 -0.75 -15 0 H 40 ASP
543 H543 -0.25 -13.5 0 H 43 ARG
544 H544 -1.25 -15 0 H 45 GLY
545 H545 -3.75 -14.5 -1.15 H 45 GLY
546 H546 -1.25 -12 0 H 45 GLY
547 H547 -3.75 -11.5 -1.15 H 45 GLY
548 H548 -3.75 -13.5 -1.15 H 44 GLY
549 H549 -3.75 -12.5 -1.15 H 44 GLY
550 H550 -6.75 -6.5 0 H 46 ASP
551 H551 -6.75 -5.5 0 H 49 ARG
552 H552 -10.75 -5.5 0 H 49 ARG
553 H553 -11.05 -6.5 0 H 50 ASN
554 H554 -5.25 -6.5 0 H 46 ASP
555 H555 -3.75 -6.5 0 H 51 ARG
556 H556 -10.05 -7.5 0 H 53 GLY
557 H557 -10.05 -6.5 0 H 50 ASN
558 H558 -3.25 -5 0 H 53 GLY
559 H559 -3.75 -5 0 H 47 ASN
560 H560 -3.25 -8 0 H 53 GLY
561 H561 -3.75 -8 0 H 48 ASP
562 H562 -3.25 -6.5 0 H 51 ARG
563 H563 -4.25 -8 0 H 53 GLY
564 H564 -6.75 -7.5 -1.15 H 53 GLY
565 H565 -4.25 -5 0 H 53 GLY
566 H566 -6.75 -4.5 -1.15 H 53 GLY
567 H567 -6.75 -6.5 -1.15 H 52 GLY
568 H568 -6.75 -5.5 -1.15 H 52 GLY
569 H569 -3.75 -2.5 1.5 H 35 ASP
570 H570 -3.75 -5 1.5 H 47 ASN
571 H571 -0.75 -2.5 1.5 H 35 ASP
572 H572 -0.75 -12 1.5 H 39 ASN
573 H573 2.5 12 5.5 H 54 ALA
574 H574 5 12 5.5 H 55 ARG
575 H575 2.5 12 7 H 54 ALA
576 H576 3.125 12.65 6.75 H 57 ASP
577 H577 5 12 7 H 55 ARG
578 H578 4.375 12.65 6.75 H 58 ASP
579 H579 3.75 13.3 6.5 H 56 ASN
580 H580 3.75 13.3 8 H 56 ASN
581 H581 4.75 13.3 8 H 59 GLY
582 H582 3.75 13.3 9.5 H 56 ASN
583 H583 3.75 16.3 9.5 H 60 THY
584 H584 2.75 15.3 4.4 H 61 ALA
585 H585 2.75 16.05 4.4 H 63 ALA
586 H586 6.75 15.3 4.4 H 62 ALA
587 H587 6.75 16.05 4.4 H 63 ALA
588 H588 3.75 16.3 8 H 60 THY
589 H589 3.75 15.3 8 H 64 GLY
590 H590 0.5 12 5.5 H 65 GLY
591 H591 1.5 12 5.5 H 54 ALA
592 H592 7 12 5.5 H 66 GLY
593 H593 6 12 5.5 H 55 ARG
594 H594 1.75 14.3 4.4 H 67 GLY
595 H595 1.75 15.3 4.4 H 61 ALA
596 H596 5.75 14.3 4.4 H 68 GLY
597 H597 5.75 15.3 4.4 H 62 ALA
598 H598 4.75 16.3 8 H 69 GLY
599 H599 9 8 5.5 H 70 ASP
600 H600 9 9 5.5 H 73 ARG
601 H601 13 9 5.5 H 73 ARG
602 H602 13.3 8 5.5 H 74 ASN
603 H603 7.5 8 5.5 H 70 ASP
604 H604 6 8 5.5 H 75 ARG
605 H605 12.3 7 5.5 H 77 GLY
606 H606 12.3 8 5.5 H 74 ASN
607 H607 5.5 9.5 5.5 H 77 GLY
608 H608 6 9.5 5.5 H 71 ASN
609 H609 5.5 6.5 5.5 H 77 GLY
610 H610 6 6.5 5.5 H 72 ASP
611 H611 5.5 8 5.5 H 75 ARG
612 H612 6.5 6.5 5.5 H 77 GLY
613 H613 9 7 4.35 H 77 GLY
614 H614 6.5 9.5 5.5 H 77 GLY
615 H615 9 10 4.35 H 77 GLY
616 H616 9 8 4.35 H 76 GLY
617 H617 9 9 4.35 H 76 GLY
618 H618 -1.5 8 5.5 H 78 ASP
619 H619 -1.5 9 5.5 H 81 ARG
620 H620 -5.5 9 5.5 H 81 ARG
621 H621 -5.8 8 5.5 H 82 ASN
622 H622 0 8 5.5 H 78 ASP
623 H623 1.5 8 5.5 H 83 ARG
624 H624 -4.8 7 5.5 H 85 GLY
625 H625 -4.8 8 5.5 H 82 ASN
626 H626 2 9.5 5.5 H 85 GLY
627 H627 1.5 9.5 5.5 H 79 ASN
628 H628 2 6.5 5.5 H 85 GLY
629 H629 1.5 6.5 5.5 H 80 ASP
630 H630 2 8 5.5 H 83 ARG
631 H631 1 6.5 5.5 H 85 GLY
632 H632 -1.5 7 4.35 H 85 GLY
633 H633 1 9.5 5.5 H 85 GLY
634 H634 -1.5 10 4.35 H 85 GLY
635 H635 -1.5 8 4.35 H 84 GLY
636 H636 -1.5 9 4.35 H 84 GLY
637 H637 4.75 24 11 H 86 ALA
638 H638 7.25 24 11 H 87 ARG
639 H639 4.75 24 12.5 H 86 ALA
640 H640 5.375 24.65 12.25 H 89 ASP
641 H641 7.25 24 12.5 H 87 ARG
642 H642 6.625 24.65 12.25 H 90 ASP
643 H643 6 25.3 12 H 88 ASN
644 H644 6 25.3 13.5 H 88 ASN
645 H645 7 25.3 13.5 H 91 GLY
646 H646 6 25.3 15 H 88 ASN
647 H647 6 28.3 15 H 92 THY
648 H648 5 27.3 9.9 H 93 ALA
649 H649 5 28.05 9.9 H 95 ALA
650 H650 9 27.3 9.9 H 94 ALA
651 H651 9 28.05 9.9 H 95 ALA
652 H652 6 28.3 13.5 H 92 THY
653 H653 6 27.3 13.5 H 96 GLY
654 H654 2.75 24 11 H 97 GLY
655 H655 3.75 24 11 H 86 ALA
656 H656 9.25 24 11 H 98 GLY
657 H657 8.25 24 11 H 87 ARG
658 H658 4 26.3 9.9 H 99 GLY
659 H659 4 27.3 9.9 H 93 ALA
660 H660 8 26.3 9.9 H 100 GLY
661 H661 8 27.3 9.9 H 94 ALA
662 H662 7 28.3 13.5 H 101 GLY
663 H663 11.25 20 11 H 102 ASP
664 H664 11.25 21 11 H 105 ARG
665 H665 15.25 21 11 H 105 ARG
666 H666 15.55 20 11 H 106 ASN
667 H667 9.75 20 11 H 102 ASP
668 H668 8.25 20 11 H 107 ARG
669 H669 14.55 19 11 H 109 GLY
670 H670 14.55 20 11 H 106 ASN
671 H671 7.75 21.5 11 H 109 GLY
672 H672 8.25 21.5 11 H 103 ASN
673 H673 7.75 18.5 11 H 109 GLY
674 H674 8.25 18.5 11 H 104 ASP
675 H675 7.75 20 11 H 107 ARG
676 H676 8.75 18.5 11 H 109 GLY
677 H677 11.25 19 9.85 H 109 GLY
678 H678 8.75 21.5 11 H 109 GLY
679 H679 11.25 22 9.85 H 109 GLY
680 H680 11.25 20 9.85 H 108 GLY
681 H681 11.25 21 9.85 H 108 GLY
682 H682 0.75 20 11 H 110 ASP
683 H683 0.75 21 11 H 113 ARG
684 H684 -3.25 21 11 H 113 ARG
685 H685 -3.55 20 11 H 114 ASN
686 H686 2.25 20 11 H 110 ASP
687 H687 3.75 20 11 H 115 ARG
688 H688 -2.55 19 11 H 117 GLY
689 H689 -2.55 20 11 H 114 ASN
690 H690 4.25 21.5 11 H 117 GLY
691 H691 3.75 21.5 11 H 111 ASN
692 H692 4.25 18.5 11 H 117 GLY
693 H693 3.75 18.5 11 H 112 ASP
694 H694 4.25 20 11 H 115 ARG
695 H695 3.25 18.5 11 H 117 GLY
696 H696 0.75 19 9.85 H 117 GLY
697 H697 3.25 21.5 11 H 117 GLY
698 H698 0.75 22 9.85 H 117 GLY
699 H699 0.75 20 9.85 H 116 GLY
700 H700 0.75 21 9.85 H 116 GLY
701 H701 7 36 16.5 H 118 ALA
702 H702 9.5 36 16.5 H 119 ARG
703 H703 7 36 18 H 118 ALA
704 H704 7.625 36.65 17.75 H 121 ASP
705 H705 9.5 36 18 H 119 ARG
706 H706 8.875 36.65 17.75 H 122 ASP
707 H707 8.25 37.3 17.5 H 120 ASN
708 H708 8.25 37.3 19 H 120 ASN
709 H709 9.25 37.3 19 H 123 GLY
710 H710 8.25 37.3 20.5 H 120 ASN
711 H711 8.25 40.3 20.5 H 124 THY
712 H712 7.25 39.3 15.4 H 125 ALA
713 H713 7.25 40.05 15.4 H 127 ALA
714 H714 11.25 39.3 15.4 H 126 ALA
715 H715 11.25 40.05 15.4 H 127 ALA
716 H716 8.25 40.3 19 H 124 THY
717 H717 8.25 39.3 19 H 128 GLY
718 H718 5 36 16.5 H 129 GLY
719 H719 6 36 16.5 H 118 ALA
720 H720 11.5 36 16.5 H 130 GLY
721 H721 10.5 36 16.5 H 119 ARG
722 H722 6.25 38.3 15.4 H 131 GLY
723 H723 6.25 39.3 15.4 H 125 ALA
724 H724 10.25 38.3 15.4 H 132 GLY
725 H725 10.25 39.3 15.4 H 126 ALA
726 H726 9.25 40.3 19 H 133 GLY
727 H727 13.5 32 16.5 H 134 ASP
728 H728 13.5 33 16.5 H 137 ARG
729 H729 17.5 33 16.5 H 137 ARG
730 H730 17.8 32 16.5 H 138 ASN
731 H731 12 32 16.5 H 134 ASP
732 H732 10.5 32 16.5 H 139 ARG
733 H733 16.8 31 16.5 H 141 GLY
734 H734 16.8 32 16.5 H 138 ASN
735 H735 10 33.5 16.5 H 141 GLY
736 H736 10.5 33.5 16.5 H 135 ASN
737 H737 10 30.5 16.5 H 141 GLY
738 H738 10.5 30.5 16.5 H 136 ASP
739 H739 10 32 16.5 H 139 ARG
740 H740 11 30.5 16.5 H 141 GLY
741 H741 13.5 31 15.35 H 141 GLY
742 H742 11 33.5 16.5 H 141 GLY
743 H743 13.5 34 15.35 H 141 GLY
744 H744 13.5 32 15.35 H 140 GLY
745 H745 13.5 33 15.35 H 140 GLY
746 H746 3 32 16.5 H 142 ASP
747 H747 3 33 16.5 H 145 ARG
748 H748 -1 33 16.5 H 145 ARG
749 H749 -1.3 32 16.5 H 146 ASN
750 H750 4.5 32 16.5 H 142 ASP
751 H751 6 32 16.5 H 147 ARG
752 H752 -0.3 31 16.5 H 149 GLY
753 H753 -0.3 32 16.5 H 146 ASN
754 H754 6.5 33.5 16.5 H 149 GLY
755 H755 6 33.5 16.5 H 143 ASN
756 H756 6.5 30.5 16.5 H 149 GLY
757 H757 6 30.5 16.5 H 144 ASP
758 H758 6.5 32 16.5 H 147 ARG
759 H759 5.5 30.5 16.5 H 149 GLY
760 H760 3 31 15.35 H 149 GLY
761 H761 5.5 33.5 16.5 H 149 GLY
762 H762 3 34 15.35 H 149 GLY
763 H763 3 32 15.35 H 148 GLY
764 H764 3 33 15.35 H 148 GLY
765 H765 5.25 44.5 19 H 150 ASP
766 H766 5.25 45.5 19 H 153 ARG
767 H767 1.25 45.5 19 H 153 ARG
768 H768 0.95 44.5 19 H 154 ASN
769 H769 6.75 44.5 19 H 150 ASP
770 H770 8.25 44.5 19 H 155 ARG
771 H771 1.95 43.5 19 H 157 GLY
772 H772 1.95 44.5 19 H 154 ASN
773 H773 8.75 46 19 H 157 GLY
774 H774 8.25 46 19 H 151 ASN
775 H775 8.75 43 19 H 157 GLY
776 H776 8.25 43 19 H 152 ASP
777 H777 8.75 44.5 19 H 155 ARG
778 H778 7.75 43 19 H 157 GLY
779 H779 5.25 43.5 17.85 H 157 GLY
780 H780 7.75 46 19 H 157 GLY
781 H781 5.25 46.5 17.85 H 157 GLY
782 H782 5.25 44.5 17.85 H 156 GLY
783 H783 5.25 45.5 17.85 H 156 GLY
784 H784 -0.75 0 1.5 H 0 ALA
785 H785 3.75 0 1.5 H 1 ARG
786 H786 1.5 6.5 4 H 80 ASP
787 H787 1.5 12 7 H 54 ALA
788 H788 1.5 9.5 7 H 79 ASN
789 H789 6 12 7 H 55 ARG
790 H790 6 9.5 7 H 71 ASN
791 H791 3.75 18.5 9.5 H 112 ASP
792 H792 3.75 24 12.5 H 86 ALA
793 H793 3.75 21.5 12.5 H 111 ASN
794 H794 8.25 24 12.5 H 87 ARG
795 H795 8.25 21.5 12.5 H 103 ASN
796 H796 6 30.5 15 H 144 ASP
797 H797 6 36 18 H 118 ALA
798 H798 6 33.5 18 H 143 ASN
799 H799 10.5 36 18 H 119 ARG
800 H800 10.5 33.5 18 H 135 ASN
801 H801 8.25 43 20.5 H 152 ASP
@<TRIPOS>BOND
1 1 2 2
2 1 4 2
3 2 3 2
4 3 5 2
5 6 7 2
6 6 9 2
7 7 8 2
8 8 10 2
9 11 12 2
10 11 18 2
11 12 13 2
12 13 14 2
13 13 15 2
14 14 16 2
15 15 17 2
16 22 23 2
17 23 24 2
18 25 26 2
19 27 28 2
20 29 34 2
21 29 39 2
22 29 30 2
23 30 35 2
24 30 40 2
25 30 31 2
26 31 36 2
27 31 41 2
28 31 32 2
29 32 37 2
30 32 42 2
31 32 33 2
32 33 38 2
33 33 43 2
34 50 51 2
35 50 53 2
36 51 52 2
37 53 54 2
38 54 55 2
39 58 59 2
40 60 61 2
41 61 62 2
42 63 64 2
43 64 65 2
44 66 67 2
45 67 68 2
46 68 69 2
47 69 70 2
48 71 72 2
49 73 74 2
50 74 76 2
51 74 75 2
52 77 78 2
53 80 81 2
54 82 83 2
55 83 84 2
56 85 86 2
57 86 87 2
58 88 89 2
59 89 90 2
60 90 91 2
61 91 92 2
62 93 94 2
63 95 96 2
64 96 98 2
65 96 97 2
66 99 100 2
67 102 103 2
68 102 105 2
69 103 104 2
70 105 106 2
71 106 107 2
72 110 111 2
73 112 113 2
74 113 114 2
75 115 116 2
76 116 117 2
77 118 119 2
78 119 120 2
79 120 121 2
80 121 122 2
81 123 124 2
82 125 126 2
83 126 128 2
84 126 127 2
85 129 130 2
86 132 133 2
87 134 135 2
88 135 136 2
89 137 138 2
90 138 139 2
91 140 141 2
92 141 142 2
93 142 143 2
94 143 144 2
95 145 146 2
96 147 148 2
97 148 150 2
98 148 149 2
99 151 152 2
100 154 155 2
101 154 157 2
102 155 156 2
103 156 158 2
104 159 160 2
105 159 162 2
106 160 161 2
107 161 163 2
108 164 165 2
109 164 171 2
110 165 166 2
111 166 167 2
112 166 168 2
113 167 169 2
114 168 170 2
115 175 176 2
116 176 177 2
117 178 179 2
118 180 181 2
119 182 187 2
120 182 192 2
121 182 183 2
122 183 188 2
123 183 193 2
124 183 184 2
125 184 189 2
126 184 194 2
127 184 185 2
128 185 190 2
129 185 195 2
130 185 186 2
131 186 191 2
132 186 196 2
133 203 204 2
134 205 206 2
135 206 207 2
136 208 209 2
137 209 210 2
138 211 212 2
139 212 213 2
140 213 214 2
141 214 215 2
142 216 217 2
143 218 219 2
144 219 221 2
145 219 220 2
146 222 223 2
147 225 226 2
148 227 228 2
149 228 229 2
150 230 231 2
151 231 232 2
152 233 234 2
153 234 235 2
154 235 236 2
155 236 237 2
156 238 239 2
157 240 241 2
158 241 243 2
159 241 242 2
160 244 245 2
161 247 248 2
162 247 250 2
163 248 249 2
164 249 251 2
165 252 253 2
166 252 255 2
167 253 254 2
168 254 256 2
169 257 258 2
170 257 264 2
171 258 259 2
172 259 260 2
173 259 261 2
174 260 262 2
175 261 263 2
176 268 269 2
177 269 270 2
178 271 272 2
179 273 274 2
180 275 280 2
181 275 285 2
182 275 276 2
183 276 281 2
184 276 286 2
185 276 277 2
186 277 282 2
187 277 287 2
188 277 278 2
189 278 283 2
190 278 288 2
191 278 279 2
192 279 284 2
193 279 289 2
194 296 297 2
195 298 299 2
196 299 300 2
197 301 302 2
198 302 303 2
199 304 305 2
200 305 306 2
201 306 307 2
202 307 308 2
203 309 310 2
204 311 312 2
205 312 314 2
206 312 313 2
207 315 316 2
208 318 319 2
209 320 321 2
210 321 322 2
211 323 324 2
212 324 325 2
213 326 327 2
214 327 328 2
215 328 329 2
216 329 330 2
217 331 332 2
218 333 334 2
219 334 336 2
220 334 335 2
221 337 338 2
222 340 341 2
223 340 343 2
224 341 342 2
225 342 344 2
226 345 346 2
227 345 348 2
228 346 347 2
229 347 349 2
230 350 351 2
231 350 357 2
232 351 352 2
233 352 353 2
234 352 354 2
235 353 355 2
236 354 356 2
237 361 362 2
238 362 363 2
239 364 365 2
240 366 367 2
241 368 373 2
242 368 378 2
243 368 369 2
244 369 374 2
245 369 379 2
246 369 370 2
247 370 375 2
248 370 380 2
249 370 371 2
250 371 376 2
251 371 381 2
252 371 372 2
253 372 377 2
254 372 382 2
255 389 390 2
256 391 392 2
257 392 393 2
258 394 395 2
259 395 396 2
260 397 398 2
261 398 399 2
262 399 400 2
263 400 401 2
264 402 403 2
265 404 405 2
266 405 407 2
267 405 406 2
268 408 409 2
269 411 412 2
270 413 414 2
271 414 415 2
272 416 417 2
273 417 418 2
274 419 420 2
275 420 421 2
276 421 422 2
277 422 423 2
278 424 425 2
279 426 427 2
280 427 429 2
281 427 428 2
282 430 431 2
283 433 434 2
284 435 436 2
285 436 437 2
286 438 439 2
287 439 440 2
288 441 442 2
289 442 443 2
290 443 444 2
291 444 445 2
292 446 447 2
293 448 449 2
294 449 451 2
295 449 450 2
296 452 453 2
297 455 456 1
298 457 458 1
299 458 461 1
300 459 460 1
301 460 461 1
302 462 463 1
303 464 465 1
304 465 786 1
305 466 467 1
306 468 469 1
307 470 471 1
308 470 480 1
309 472 473 1
310 474 475 1
311 476 477 1
312 478 479 1
313 481 482 1
314 483 484 1
315 485 486 1
316 487 488 1
317 489 490 1
318 491 492 1
319 493 494 1
320 493 497 1
321 493 497 1
322 495 496 1
323 495 497 1
324 495 497 1
325 498 499 1
326 499 502 1
327 500 501 1
328 501 503 1
329 504 505 1
330 506 507 1
331 508 509 1
332 510 511 1
333 512 513 1
334 512 516 1
335 512 516 1
336 514 515 1
337 514 516 1
338 514 516 1
339 517 518 1
340 518 521 1
341 519 520 1
342 520 522 1
343 523 524 1
344 525 526 1
345 525 785 1
346 527 528 1
347 529 530 1
348 531 532 1
349 533 534 1
350 535 536 1
351 537 538 1
352 539 540 1
353 539 543 1
354 539 543 1
355 541 542 1
356 541 543 1
357 541 543 1
358 544 545 1
359 545 548 1
360 546 547 1
361 547 549 1
362 550 551 1
363 552 553 1
364 554 555 1
365 556 557 1
366 558 559 1
367 558 562 1
368 558 562 1
369 560 561 1
370 560 562 1
371 560 562 1
372 563 564 1
373 564 567 1
374 565 566 1
375 566 568 1
376 569 570 1
377 571 572 1
378 571 784 1
379 573 574 1
380 575 576 1
381 576 579 1
382 577 578 1
383 578 579 1
384 580 581 1
385 582 583 1
386 583 791 1
387 584 585 1
388 586 587 1
389 588 589 1
390 588 598 1
391 590 591 1
392 592 593 1
393 594 595 1
394 596 597 1
395 599 600 1
396 601 602 1
397 603 604 1
398 605 606 1
399 607 608 1
400 607 611 1
401 607 611 1
402 609 610 1
403 609 611 1
404 609 611 1
405 612 613 1
406 613 616 1
407 614 615 1
408 615 617 1
409 618 619 1
410 620 621 1
411 622 623 1
412 624 625 1
413 626 627 1
414 626 630 1
415 626 630 1
416 628 629 1
417 628 630 1
418 628 630 1
419 631 632 1
420 632 635 1
421 633 634 1
422 634 636 1
423 637 638 1
424 639 640 1
425 640 643 1
426 641 642 1
427 642 643 1
428 644 645 1
429 646 647 1
430 647 796 1
431 648 649 1
432 650 651 1
433 652 653 1
434 652 662 1
435 654 655 1
436 656 657 1
437 658 659 1
438 660 661 1
439 663 664 1
440 665 666 1
441 667 668 1
442 669 670 1
443 671 672 1
444 671 675 1
445 671 675 1
446 673 674 1
447 673 675 1
448 673 675 1
449 676 677 1
450 677 680 1
451 678 679 1
452 679 681 1
453 682 683 1
454 684 685 1
455 686 687 1
456 688 689 1
457 690 691 1
458 690 694 1
459 690 694 1
460 692 693 1
461 692 694 1
462 692 694 1
463 695 696 1
464 696 699 1
465 697 698 1
466 698 700 1
467 701 702 1
468 703 704 1
469 704 707 1
470 705 706 1
471 706 707 1
472 708 709 1
473 710 711 1
474 711 801 1
475 712 713 1
476 714 715 1
477 716 717 1
478 716 726 1
479 718 719 1
480 720 721 1
481 722 723 1
482 724 725 1
483 727 728 1
484 729 730 1
485 731 732 1
486 733 734 1
487 735 736 1
488 735 739 1
489 735 739 1
490 737 738 1
491 737 739 1
492 737 739 1
493 740 741 1
494 741 744 1
495 742 743 1
496 743 745 1
497 746 747 1
498 748 749 1
499 750 751 1
500 752 753 1
501 754 755 1
502 754 758 1
503 754 758 1
504 756 757 1
505 756 758 1
506 756 758 1
507 759 760 1
508 760 763 1
509 761 762 1
510 762 764 1
511 765 766 1
512 767 768 1
513 769 770 1
514 771 772 1
515 773 774 1
516 773 777 1
517 773 777 1
518 775 776 1
519 775 777 1
520 775 777 1
521 778 779 1
522 779 782 1
523 780 781 1
524 781 783 1
525 787 788 1
526 789 790 1
527 792 793 1
528 794 795 1
529 797 798 1
530 799 800 1
