#
#
#

#
#

@<TRIPOS>MOLECULE
Panda
639 423
SMALL
NO CHARGES


@<TRIPOS>ATOM
1 C1 0.25 0 0 C 0 ALA
2 C2 0.25 0 0.75 C 0 ALA
3 C3 0.25 0 1.5 C 0 ALA
4 C4 -0.75 0 0 C 0 ALA
5 C5 -0.75 0 1.5 C 0 ALA
6 C6 2.75 0 0 C 1 ARG
7 C7 2.75 0 0.75 C 1 ARG
8 C8 2.75 0 1.5 C 1 ARG
9 C9 3.75 0 0 C 1 ARG
10 C10 3.75 0 1.5 C 1 ARG
11 C11 1.5 1.3 2.5 C 2 ASN
12 C12 1.5 1.3 1.75 C 2 ASN
13 C13 1.5 1.3 0.999999 C 2 ASN
14 C14 0.849999 1.68 1 C 2 ASN
15 C15 2.15 1.68 1 C 2 ASN
16 C16 0.209999 2.05 0.999999 C 2 ASN
17 C17 2.79 2.05 0.999999 C 2 ASN
18 C18 1.5 1.3 4 C 2 ASN
19 H19 0.875 0.65 1.25 H 3 ASP
20 H20 2.125 0.65 1.25 H 4 ASP
21 H21 2.5 1.3 2.5 H 5 GLY
22 C22 1.5 4.3 1 C 6 THY
23 C23 1.5 4.3 2.5 C 6 THY
24 C24 1.5 4.3 4 C 6 THY
25 O25 -0.5 3.3 -1.1 O 7 ALA
26 O26 0.5 3.3 -1.1 O 7 ALA
27 O27 3.5 3.3 -1.1 O 8 ALA
28 O28 4.5 3.3 -1.1 O 8 ALA
29 O29 0.499999 4.05 -1.1 O 9 ALA
30 O30 1.5 4.05 -1.1 O 9 ALA
31 O31 2.5 4.05 -1.1 O 9 ALA
32 O32 3.5 4.05 -1.1 O 9 ALA
33 O33 4.5 4.05 -1.1 O 9 ALA
34 O34 0.499999 4.55 -1.1 O 9 ALA
35 O35 1.5 4.55 -1.1 O 9 ALA
36 O36 2.5 4.55 -1.1 O 9 ALA
37 O37 3.5 4.55 -1.1 O 9 ALA
38 O38 4.5 4.55 -1.1 O 9 ALA
39 O39 0.499999 4.3 -0.6 O 9 ALA
40 O40 1.5 4.3 -0.6 O 9 ALA
41 O41 2.5 4.3 -0.6 O 9 ALA
42 O42 3.5 4.3 -0.6 O 9 ALA
43 O43 4.5 4.3 -0.6 O 9 ALA
44 O44 1.5 3.3 2.5 O 10 GLY
45 H45 -1.75 0 0 H 11 GLY
46 H46 4.75 0 0 H 12 GLY
47 H47 -0.5 2.3 -1.1 H 13 GLY
48 H48 3.5 2.3 -1.1 H 14 GLY
49 H49 2.5 4.3 2.5 H 15 GLY
50 C50 3.75 -2.5 -1.5 C 16 ASP
51 C51 3.75 -2.5 0 C 16 ASP
52 C52 3.75 -2.5 1.5 C 16 ASP
53 C53 6.75 -2.5 -1.5 C 16 ASP
54 C54 6.75 -2.5 0 C 16 ASP
55 C55 6.75 -2.5 1.5 C 16 ASP
56 H56 2.75 -2.5 0 H 17 GLY
57 H57 7.75 -2.5 0 H 18 GLY
58 O58 5.25 -13.5 0 O 19 ASP
59 O59 6.75 -13.5 0 O 19 ASP
60 C60 3.75 -12 -1.5 C 20 ASN
61 C61 3.75 -12 0 C 20 ASN
62 C62 3.75 -12 1.5 C 20 ASN
63 C63 3.75 -15 -1.5 C 21 ASP
64 C64 3.75 -15 0 C 21 ASP
65 C65 3.75 -15 1.5 C 21 ASP
66 O66 6.75 -12.5 0 O 22 ARG
67 O67 7.75 -12.5 0 O 22 ARG
68 O68 8.75 -12.5 0 O 22 ARG
69 O69 9.75 -12.5 0 O 22 ARG
70 O70 10.75 -12.5 0 O 22 ARG
71 C71 10.05 -13.5 0 C 23 ASN
72 C72 11.05 -13.5 0 C 23 ASN
73 C73 3.75 -13.5 -1.5 C 24 ARG
74 C74 3.75 -13.5 0 C 24 ARG
75 C75 3.75 -13.5 1.5 C 24 ARG
76 O76 3.25 -13.5 0 O 24 ARG
77 C77 6.75 -13.5 -1.15 C 25 GLY
78 C78 6.75 -12.5 -1.15 C 25 GLY
79 H79 10.05 -14.5 0 H 26 GLY
80 O80 8.25 -6.5 0 O 27 ASP
81 O81 9.75 -6.5 0 O 27 ASP
82 C82 6.75 -5 -1.5 C 28 ASN
83 C83 6.75 -5 0 C 28 ASN
84 C84 6.75 -5 1.5 C 28 ASN
85 C85 6.75 -8 -1.5 C 29 ASP
86 C86 6.75 -8 0 C 29 ASP
87 C87 6.75 -8 1.5 C 29 ASP
88 O88 9.75 -5.5 0 O 30 ARG
89 O89 10.75 -5.5 0 O 30 ARG
90 O90 11.75 -5.5 0 O 30 ARG
91 O91 12.75 -5.5 0 O 30 ARG
92 O92 13.75 -5.5 0 O 30 ARG
93 C93 13.05 -6.5 0 C 31 ASN
94 C94 14.05 -6.5 0 C 31 ASN
95 C95 6.75 -6.5 -1.5 C 32 ARG
96 C96 6.75 -6.5 0 C 32 ARG
97 C97 6.75 -6.5 1.5 C 32 ARG
98 O98 6.25 -6.5 0 O 32 ARG
99 C99 9.75 -6.5 -1.15 C 33 GLY
100 C100 9.75 -5.5 -1.15 C 33 GLY
101 H101 13.05 -7.5 0 H 34 GLY
102 C102 -3.75 -2.5 -1.5 C 35 ASP
103 C103 -3.75 -2.5 0 C 35 ASP
104 C104 -3.75 -2.5 1.5 C 35 ASP
105 C105 -0.75 -2.5 -1.5 C 35 ASP
106 C106 -0.75 -2.5 0 C 35 ASP
107 C107 -0.75 -2.5 1.5 C 35 ASP
108 H108 -4.75 -2.5 0 H 36 GLY
109 H109 0.25 -2.5 0 H 37 GLY
110 O110 -3.75 -13.5 0 O 38 ASP
111 O111 -2.25 -13.5 0 O 38 ASP
112 C112 -0.75 -12 -1.5 C 39 ASN
113 C113 -0.75 -12 0 C 39 ASN
114 C114 -0.75 -12 1.5 C 39 ASN
115 C115 -0.75 -15 -1.5 C 40 ASP
116 C116 -0.75 -15 0 C 40 ASP
117 C117 -0.75 -15 1.5 C 40 ASP
118 O118 -7.75 -12.5 0 O 41 ARG
119 O119 -6.75 -12.5 0 O 41 ARG
120 O120 -5.75 -12.5 0 O 41 ARG
121 O121 -4.75 -12.5 0 O 41 ARG
122 O122 -3.75 -12.5 0 O 41 ARG
123 C123 -8.05 -13.5 0 C 42 ASN
124 C124 -7.05 -13.5 0 C 42 ASN
125 C125 -0.75 -13.5 -1.5 C 43 ARG
126 C126 -0.75 -13.5 0 C 43 ARG
127 C127 -0.75 -13.5 1.5 C 43 ARG
128 O128 -0.25 -13.5 0 O 43 ARG
129 C129 -3.75 -13.5 -1.15 C 44 GLY
130 C130 -3.75 -12.5 -1.15 C 44 GLY
131 H131 -7.05 -14.5 0 H 45 GLY
132 O132 -6.75 -6.5 0 O 46 ASP
133 O133 -5.25 -6.5 0 O 46 ASP
134 C134 -3.75 -5 -1.5 C 47 ASN
135 C135 -3.75 -5 0 C 47 ASN
136 C136 -3.75 -5 1.5 C 47 ASN
137 C137 -3.75 -8 -1.5 C 48 ASP
138 C138 -3.75 -8 0 C 48 ASP
139 C139 -3.75 -8 1.5 C 48 ASP
140 O140 -10.75 -5.5 0 O 49 ARG
141 O141 -9.75 -5.5 0 O 49 ARG
142 O142 -8.75 -5.5 0 O 49 ARG
143 O143 -7.75 -5.5 0 O 49 ARG
144 O144 -6.75 -5.5 0 O 49 ARG
145 C145 -11.05 -6.5 0 C 50 ASN
146 C146 -10.05 -6.5 0 C 50 ASN
147 C147 -3.75 -6.5 -1.5 C 51 ARG
148 C148 -3.75 -6.5 0 C 51 ARG
149 C149 -3.75 -6.5 1.5 C 51 ARG
150 O150 -3.25 -6.5 0 O 51 ARG
151 C151 -6.75 -6.5 -1.15 C 52 GLY
152 C152 -6.75 -5.5 -1.15 C 52 GLY
153 H153 -10.05 -7.5 0 H 53 GLY
154 C154 2.5 12 5.5 C 54 ALA
155 C155 2.5 12 6.25 C 54 ALA
156 C156 2.5 12 7 C 54 ALA
157 C157 1.5 12 5.5 C 54 ALA
158 C158 1.5 12 7 C 54 ALA
159 C159 5 12 5.5 C 55 ARG
160 C160 5 12 6.25 C 55 ARG
161 C161 5 12 7 C 55 ARG
162 C162 6 12 5.5 C 55 ARG
163 C163 6 12 7 C 55 ARG
164 C164 3.75 13.3 8 C 56 ASN
165 C165 3.75 13.3 7.25 C 56 ASN
166 C166 3.75 13.3 6.5 C 56 ASN
167 C167 3.1 13.68 6.5 C 56 ASN
168 C168 4.4 13.68 6.5 C 56 ASN
169 C169 2.46 14.05 6.5 C 56 ASN
170 C170 5.04 14.05 6.5 C 56 ASN
171 C171 3.75 13.3 9.5 C 56 ASN
172 H172 3.125 12.65 6.75 H 57 ASP
173 H173 4.375 12.65 6.75 H 58 ASP
174 H174 4.75 13.3 8 H 59 GLY
175 C175 3.75 16.3 6.5 C 60 THY
176 C176 3.75 16.3 8 C 60 THY
177 C177 3.75 16.3 9.5 C 60 THY
178 O178 1.75 15.3 4.4 O 61 ALA
179 O179 2.75 15.3 4.4 O 61 ALA
180 O180 5.75 15.3 4.4 O 62 ALA
181 O181 6.75 15.3 4.4 O 62 ALA
182 O182 2.75 16.05 4.4 O 63 ALA
183 O183 3.75 16.05 4.4 O 63 ALA
184 O184 4.75 16.05 4.4 O 63 ALA
185 O185 5.75 16.05 4.4 O 63 ALA
186 O186 6.75 16.05 4.4 O 63 ALA
187 O187 2.75 16.55 4.4 O 63 ALA
188 O188 3.75 16.55 4.4 O 63 ALA
189 O189 4.75 16.55 4.4 O 63 ALA
190 O190 5.75 16.55 4.4 O 63 ALA
191 O191 6.75 16.55 4.4 O 63 ALA
192 O192 2.75 16.3 4.9 O 63 ALA
193 O193 3.75 16.3 4.9 O 63 ALA
194 O194 4.75 16.3 4.9 O 63 ALA
195 O195 5.75 16.3 4.9 O 63 ALA
196 O196 6.75 16.3 4.9 O 63 ALA
197 O197 3.75 15.3 8 O 64 GLY
198 H198 0.5 12 5.5 H 65 GLY
199 H199 7 12 5.5 H 66 GLY
200 H200 1.75 14.3 4.4 H 67 GLY
201 H201 5.75 14.3 4.4 H 68 GLY
202 H202 4.75 16.3 8 H 69 GLY
203 O203 7.5 8 5.5 O 70 ASP
204 O204 9 8 5.5 O 70 ASP
205 C205 6 9.5 4 C 71 ASN
206 C206 6 9.5 5.5 C 71 ASN
207 C207 6 9.5 7 C 71 ASN
208 C208 6 6.5 4 C 72 ASP
209 C209 6 6.5 5.5 C 72 ASP
210 C210 6 6.5 7 C 72 ASP
211 O211 9 9 5.5 O 73 ARG
212 O212 10 9 5.5 O 73 ARG
213 O213 11 9 5.5 O 73 ARG
214 O214 12 9 5.5 O 73 ARG
215 O215 13 9 5.5 O 73 ARG
216 C216 12.3 8 5.5 C 74 ASN
217 C217 13.3 8 5.5 C 74 ASN
218 C218 6 8 4 C 75 ARG
219 C219 6 8 5.5 C 75 ARG
220 C220 6 8 7 C 75 ARG
221 O221 5.5 8 5.5 O 75 ARG
222 C222 9 8 4.35 C 76 GLY
223 C223 9 9 4.35 C 76 GLY
224 H224 12.3 7 5.5 H 77 GLY
225 O225 -1.5 8 5.5 O 78 ASP
226 O226 0 8 5.5 O 78 ASP
227 C227 1.5 9.5 4 C 79 ASN
228 C228 1.5 9.5 5.5 C 79 ASN
229 C229 1.5 9.5 7 C 79 ASN
230 C230 1.5 6.5 4 C 80 ASP
231 C231 1.5 6.5 5.5 C 80 ASP
232 C232 1.5 6.5 7 C 80 ASP
233 O233 -5.5 9 5.5 O 81 ARG
234 O234 -4.5 9 5.5 O 81 ARG
235 O235 -3.5 9 5.5 O 81 ARG
236 O236 -2.5 9 5.5 O 81 ARG
237 O237 -1.5 9 5.5 O 81 ARG
238 C238 -5.8 8 5.5 C 82 ASN
239 C239 -4.8 8 5.5 C 82 ASN
240 C240 1.5 8 4 C 83 ARG
241 C241 1.5 8 5.5 C 83 ARG
242 C242 1.5 8 7 C 83 ARG
243 O243 2 8 5.5 O 83 ARG
244 C244 -1.5 8 4.35 C 84 GLY
245 C245 -1.5 9 4.35 C 84 GLY
246 H246 -4.8 7 5.5 H 85 GLY
247 C247 4.75 24 11 C 86 ALA
248 C248 4.75 24 11.75 C 86 ALA
249 C249 4.75 24 12.5 C 86 ALA
250 C250 3.75 24 11 C 86 ALA
251 C251 3.75 24 12.5 C 86 ALA
252 C252 7.25 24 11 C 87 ARG
253 C253 7.25 24 11.75 C 87 ARG
254 C254 7.25 24 12.5 C 87 ARG
255 C255 8.25 24 11 C 87 ARG
256 C256 8.25 24 12.5 C 87 ARG
257 C257 6 25.3 13.5 C 88 ASN
258 C258 6 25.3 12.75 C 88 ASN
259 C259 6 25.3 12 C 88 ASN
260 C260 5.35 25.68 12 C 88 ASN
261 C261 6.65 25.68 12 C 88 ASN
262 C262 4.71 26.05 12 C 88 ASN
263 C263 7.29 26.05 12 C 88 ASN
264 C264 6 25.3 15 C 88 ASN
265 H265 5.375 24.65 12.25 H 89 ASP
266 H266 6.625 24.65 12.25 H 90 ASP
267 H267 7 25.3 13.5 H 91 GLY
268 C268 6 28.3 12 C 92 THY
269 C269 6 28.3 13.5 C 92 THY
270 C270 6 28.3 15 C 92 THY
271 O271 4 27.3 9.9 O 93 ALA
272 O272 5 27.3 9.9 O 93 ALA
273 O273 8 27.3 9.9 O 94 ALA
274 O274 9 27.3 9.9 O 94 ALA
275 O275 5 28.05 9.9 O 95 ALA
276 O276 6 28.05 9.9 O 95 ALA
277 O277 7 28.05 9.9 O 95 ALA
278 O278 8 28.05 9.9 O 95 ALA
279 O279 9 28.05 9.9 O 95 ALA
280 O280 5 28.55 9.9 O 95 ALA
281 O281 6 28.55 9.9 O 95 ALA
282 O282 7 28.55 9.9 O 95 ALA
283 O283 8 28.55 9.9 O 95 ALA
284 O284 9 28.55 9.9 O 95 ALA
285 O285 5 28.3 10.4 O 95 ALA
286 O286 6 28.3 10.4 O 95 ALA
287 O287 7 28.3 10.4 O 95 ALA
288 O288 8 28.3 10.4 O 95 ALA
289 O289 9 28.3 10.4 O 95 ALA
290 O290 6 27.3 13.5 O 96 GLY
291 H291 2.75 24 11 H 97 GLY
292 H292 9.25 24 11 H 98 GLY
293 H293 4 26.3 9.9 H 99 GLY
294 H294 8 26.3 9.9 H 100 GLY
295 H295 7 28.3 13.5 H 101 GLY
296 O296 9.75 20 11 O 102 ASP
297 O297 11.25 20 11 O 102 ASP
298 C298 8.25 21.5 9.5 C 103 ASN
299 C299 8.25 21.5 11 C 103 ASN
300 C300 8.25 21.5 12.5 C 103 ASN
301 C301 8.25 18.5 9.5 C 104 ASP
302 C302 8.25 18.5 11 C 104 ASP
303 C303 8.25 18.5 12.5 C 104 ASP
304 O304 11.25 21 11 O 105 ARG
305 O305 12.25 21 11 O 105 ARG
306 O306 13.25 21 11 O 105 ARG
307 O307 14.25 21 11 O 105 ARG
308 O308 15.25 21 11 O 105 ARG
309 C309 14.55 20 11 C 106 ASN
310 C310 15.55 20 11 C 106 ASN
311 C311 8.25 20 9.5 C 107 ARG
312 C312 8.25 20 11 C 107 ARG
313 C313 8.25 20 12.5 C 107 ARG
314 O314 7.75 20 11 O 107 ARG
315 C315 11.25 20 9.85 C 108 GLY
316 C316 11.25 21 9.85 C 108 GLY
317 H317 14.55 19 11 H 109 GLY
318 O318 0.75 20 11 O 110 ASP
319 O319 2.25 20 11 O 110 ASP
320 C320 3.75 21.5 9.5 C 111 ASN
321 C321 3.75 21.5 11 C 111 ASN
322 C322 3.75 21.5 12.5 C 111 ASN
323 C323 3.75 18.5 9.5 C 112 ASP
324 C324 3.75 18.5 11 C 112 ASP
325 C325 3.75 18.5 12.5 C 112 ASP
326 O326 -3.25 21 11 O 113 ARG
327 O327 -2.25 21 11 O 113 ARG
328 O328 -1.25 21 11 O 113 ARG
329 O329 -0.25 21 11 O 113 ARG
330 O330 0.75 21 11 O 113 ARG
331 C331 -3.55 20 11 C 114 ASN
332 C332 -2.55 20 11 C 114 ASN
333 C333 3.75 20 9.5 C 115 ARG
334 C334 3.75 20 11 C 115 ARG
335 C335 3.75 20 12.5 C 115 ARG
336 O336 4.25 20 11 O 115 ARG
337 C337 0.75 20 9.85 C 116 GLY
338 C338 0.75 21 9.85 C 116 GLY
339 H339 -2.55 19 11 H 117 GLY
340 O340 3 32.5 13.5 O 118 ASP
341 O341 4.5 32.5 13.5 O 118 ASP
342 C342 6 34 12 C 119 ASN
343 C343 6 34 13.5 C 119 ASN
344 C344 6 34 15 C 119 ASN
345 C345 6 31 12 C 120 ASP
346 C346 6 31 13.5 C 120 ASP
347 C347 6 31 15 C 120 ASP
348 O348 -1 33.5 13.5 O 121 ARG
349 O349 0 33.5 13.5 O 121 ARG
350 O350 1 33.5 13.5 O 121 ARG
351 O351 2 33.5 13.5 O 121 ARG
352 O352 3 33.5 13.5 O 121 ARG
353 C353 -1.3 32.5 13.5 C 122 ASN
354 C354 -0.3 32.5 13.5 C 122 ASN
355 C355 6 32.5 12 C 123 ARG
356 C356 6 32.5 13.5 C 123 ARG
357 C357 6 32.5 15 C 123 ARG
358 O358 6.5 32.5 13.5 O 123 ARG
359 C359 3 32.5 12.35 C 124 GLY
360 C360 3 33.5 12.35 C 124 GLY
361 H361 -0.3 31.5 13.5 H 125 GLY
362 H362 0.25 0 0 H 0 ALA
363 H363 2.75 0 0 H 1 ARG
364 H364 0.25 0 1.5 H 0 ALA
365 H365 0.875 0.65 1.25 H 3 ASP
366 H366 2.75 0 1.5 H 1 ARG
367 H367 2.125 0.65 1.25 H 4 ASP
368 H368 1.5 1.3 0.999999 H 2 ASN
369 H369 1.5 1.3 2.5 H 2 ASN
370 H370 2.5 1.3 2.5 H 5 GLY
371 H371 1.5 1.3 4 H 2 ASN
372 H372 1.5 4.3 4 H 6 THY
373 H373 0.5 3.3 -1.1 H 7 ALA
374 H374 0.499999 4.05 -1.1 H 9 ALA
375 H375 4.5 3.3 -1.1 H 8 ALA
376 H376 4.5 4.05 -1.1 H 9 ALA
377 H377 1.5 4.3 2.5 H 6 THY
378 H378 1.5 3.3 2.5 H 10 GLY
379 H379 -1.75 0 0 H 11 GLY
380 H380 -0.75 0 0 H 0 ALA
381 H381 4.75 0 0 H 12 GLY
382 H382 3.75 0 0 H 1 ARG
383 H383 -0.5 2.3 -1.1 H 13 GLY
384 H384 -0.5 3.3 -1.1 H 7 ALA
385 H385 3.5 2.3 -1.1 H 14 GLY
386 H386 3.5 3.3 -1.1 H 8 ALA
387 H387 2.5 4.3 2.5 H 15 GLY
388 H388 3.75 -2.5 0 H 16 ASP
389 H389 2.75 -2.5 0 H 17 GLY
390 H390 6.75 -2.5 0 H 16 ASP
391 H391 7.75 -2.5 0 H 18 GLY
392 H392 6.75 -13.5 0 H 19 ASP
393 H393 6.75 -12.5 0 H 22 ARG
394 H394 10.75 -12.5 0 H 22 ARG
395 H395 11.05 -13.5 0 H 23 ASN
396 H396 5.25 -13.5 0 H 19 ASP
397 H397 3.75 -13.5 0 H 24 ARG
398 H398 10.05 -14.5 0 H 26 GLY
399 H399 10.05 -13.5 0 H 23 ASN
400 H400 3.25 -12 0 H 26 GLY
401 H401 3.75 -12 0 H 20 ASN
402 H402 3.25 -15 0 H 26 GLY
403 H403 3.75 -15 0 H 21 ASP
404 H404 3.25 -13.5 0 H 24 ARG
405 H405 4.25 -15 0 H 26 GLY
406 H406 6.75 -14.5 -1.15 H 26 GLY
407 H407 4.25 -12 0 H 26 GLY
408 H408 6.75 -11.5 -1.15 H 26 GLY
409 H409 6.75 -13.5 -1.15 H 25 GLY
410 H410 6.75 -12.5 -1.15 H 25 GLY
411 H411 9.75 -6.5 0 H 27 ASP
412 H412 9.75 -5.5 0 H 30 ARG
413 H413 13.75 -5.5 0 H 30 ARG
414 H414 14.05 -6.5 0 H 31 ASN
415 H415 8.25 -6.5 0 H 27 ASP
416 H416 6.75 -6.5 0 H 32 ARG
417 H417 13.05 -7.5 0 H 34 GLY
418 H418 13.05 -6.5 0 H 31 ASN
419 H419 6.25 -5 0 H 34 GLY
420 H420 6.75 -5 0 H 28 ASN
421 H421 6.25 -8 0 H 34 GLY
422 H422 6.75 -8 0 H 29 ASP
423 H423 6.25 -6.5 0 H 32 ARG
424 H424 7.25 -8 0 H 34 GLY
425 H425 9.75 -7.5 -1.15 H 34 GLY
426 H426 7.25 -5 0 H 34 GLY
427 H427 9.75 -4.5 -1.15 H 34 GLY
428 H428 9.75 -6.5 -1.15 H 33 GLY
429 H429 9.75 -5.5 -1.15 H 33 GLY
430 H430 6.75 -2.5 1.5 H 16 ASP
431 H431 6.75 -5 1.5 H 28 ASN
432 H432 3.75 -2.5 1.5 H 16 ASP
433 H433 3.75 -12 1.5 H 20 ASN
434 H434 -3.75 -2.5 0 H 35 ASP
435 H435 -4.75 -2.5 0 H 36 GLY
436 H436 -0.75 -2.5 0 H 35 ASP
437 H437 0.25 -2.5 0 H 37 GLY
438 H438 -3.75 -13.5 0 H 38 ASP
439 H439 -3.75 -12.5 0 H 41 ARG
440 H440 -7.75 -12.5 0 H 41 ARG
441 H441 -8.05 -13.5 0 H 42 ASN
442 H442 -2.25 -13.5 0 H 38 ASP
443 H443 -0.75 -13.5 0 H 43 ARG
444 H444 -7.05 -14.5 0 H 45 GLY
445 H445 -7.05 -13.5 0 H 42 ASN
446 H446 -0.25 -12 0 H 45 GLY
447 H447 -0.75 -12 0 H 39 ASN
448 H448 -0.25 -15 0 H 45 GLY
449 H449 -0.75 -15 0 H 40 ASP
450 H450 -0.25 -13.5 0 H 43 ARG
451 H451 -1.25 -15 0 H 45 GLY
452 H452 -3.75 -14.5 -1.15 H 45 GLY
453 H453 -1.25 -12 0 H 45 GLY
454 H454 -3.75 -11.5 -1.15 H 45 GLY
455 H455 -3.75 -13.5 -1.15 H 44 GLY
456 H456 -3.75 -12.5 -1.15 H 44 GLY
457 H457 -6.75 -6.5 0 H 46 ASP
458 H458 -6.75 -5.5 0 H 49 ARG
459 H459 -10.75 -5.5 0 H 49 ARG
460 H460 -11.05 -6.5 0 H 50 ASN
461 H461 -5.25 -6.5 0 H 46 ASP
462 H462 -3.75 -6.5 0 H 51 ARG
463 H463 -10.05 -7.5 0 H 53 GLY
464 H464 -10.05 -6.5 0 H 50 ASN
465 H465 -3.25 -5 0 H 53 GLY
466 H466 -3.75 -5 0 H 47 ASN
467 H467 -3.25 -8 0 H 53 GLY
468 H468 -3.75 -8 0 H 48 ASP
469 H469 -3.25 -6.5 0 H 51 ARG
470 H470 -4.25 -8 0 H 53 GLY
471 H471 -6.75 -7.5 -1.15 H 53 GLY
472 H472 -4.25 -5 0 H 53 GLY
473 H473 -6.75 -4.5 -1.15 H 53 GLY
474 H474 -6.75 -6.5 -1.15 H 52 GLY
475 H475 -6.75 -5.5 -1.15 H 52 GLY
476 H476 -3.75 -2.5 1.5 H 35 ASP
477 H477 -3.75 -5 1.5 H 47 ASN
478 H478 -0.75 -2.5 1.5 H 35 ASP
479 H479 -0.75 -12 1.5 H 39 ASN
480 H480 2.5 12 5.5 H 54 ALA
481 H481 5 12 5.5 H 55 ARG
482 H482 2.5 12 7 H 54 ALA
483 H483 3.125 12.65 6.75 H 57 ASP
484 H484 5 12 7 H 55 ARG
485 H485 4.375 12.65 6.75 H 58 ASP
486 H486 3.75 13.3 6.5 H 56 ASN
487 H487 3.75 13.3 8 H 56 ASN
488 H488 4.75 13.3 8 H 59 GLY
489 H489 3.75 13.3 9.5 H 56 ASN
490 H490 3.75 16.3 9.5 H 60 THY
491 H491 2.75 15.3 4.4 H 61 ALA
492 H492 2.75 16.05 4.4 H 63 ALA
493 H493 6.75 15.3 4.4 H 62 ALA
494 H494 6.75 16.05 4.4 H 63 ALA
495 H495 3.75 16.3 8 H 60 THY
496 H496 3.75 15.3 8 H 64 GLY
497 H497 0.5 12 5.5 H 65 GLY
498 H498 1.5 12 5.5 H 54 ALA
499 H499 7 12 5.5 H 66 GLY
500 H500 6 12 5.5 H 55 ARG
501 H501 1.75 14.3 4.4 H 67 GLY
502 H502 1.75 15.3 4.4 H 61 ALA
503 H503 5.75 14.3 4.4 H 68 GLY
504 H504 5.75 15.3 4.4 H 62 ALA
505 H505 4.75 16.3 8 H 69 GLY
506 H506 9 8 5.5 H 70 ASP
507 H507 9 9 5.5 H 73 ARG
508 H508 13 9 5.5 H 73 ARG
509 H509 13.3 8 5.5 H 74 ASN
510 H510 7.5 8 5.5 H 70 ASP
511 H511 6 8 5.5 H 75 ARG
512 H512 12.3 7 5.5 H 77 GLY
513 H513 12.3 8 5.5 H 74 ASN
514 H514 5.5 9.5 5.5 H 77 GLY
515 H515 6 9.5 5.5 H 71 ASN
516 H516 5.5 6.5 5.5 H 77 GLY
517 H517 6 6.5 5.5 H 72 ASP
518 H518 5.5 8 5.5 H 75 ARG
519 H519 6.5 6.5 5.5 H 77 GLY
520 H520 9 7 4.35 H 77 GLY
521 H521 6.5 9.5 5.5 H 77 GLY
522 H522 9 10 4.35 H 77 GLY
523 H523 9 8 4.35 H 76 GLY
524 H524 9 9 4.35 H 76 GLY
525 H525 -1.5 8 5.5 H 78 ASP
526 H526 -1.5 9 5.5 H 81 ARG
527 H527 -5.5 9 5.5 H 81 ARG
528 H528 -5.8 8 5.5 H 82 ASN
529 H529 0 8 5.5 H 78 ASP
530 H530 1.5 8 5.5 H 83 ARG
531 H531 -4.8 7 5.5 H 85 GLY
532 H532 -4.8 8 5.5 H 82 ASN
533 H533 2 9.5 5.5 H 85 GLY
534 H534 1.5 9.5 5.5 H 79 ASN
535 H535 2 6.5 5.5 H 85 GLY
536 H536 1.5 6.5 5.5 H 80 ASP
537 H537 2 8 5.5 H 83 ARG
538 H538 1 6.5 5.5 H 85 GLY
539 H539 -1.5 7 4.35 H 85 GLY
540 H540 1 9.5 5.5 H 85 GLY
541 H541 -1.5 10 4.35 H 85 GLY
542 H542 -1.5 8 4.35 H 84 GLY
543 H543 -1.5 9 4.35 H 84 GLY
544 H544 4.75 24 11 H 86 ALA
545 H545 7.25 24 11 H 87 ARG
546 H546 4.75 24 12.5 H 86 ALA
547 H547 5.375 24.65 12.25 H 89 ASP
548 H548 7.25 24 12.5 H 87 ARG
549 H549 6.625 24.65 12.25 H 90 ASP
550 H550 6 25.3 12 H 88 ASN
551 H551 6 25.3 13.5 H 88 ASN
552 H552 7 25.3 13.5 H 91 GLY
553 H553 6 25.3 15 H 88 ASN
554 H554 6 28.3 15 H 92 THY
555 H555 5 27.3 9.9 H 93 ALA
556 H556 5 28.05 9.9 H 95 ALA
557 H557 9 27.3 9.9 H 94 ALA
558 H558 9 28.05 9.9 H 95 ALA
559 H559 6 28.3 13.5 H 92 THY
560 H560 6 27.3 13.5 H 96 GLY
561 H561 2.75 24 11 H 97 GLY
562 H562 3.75 24 11 H 86 ALA
563 H563 9.25 24 11 H 98 GLY
564 H564 8.25 24 11 H 87 ARG
565 H565 4 26.3 9.9 H 99 GLY
566 H566 4 27.3 9.9 H 93 ALA
567 H567 8 26.3 9.9 H 100 GLY
568 H568 8 27.3 9.9 H 94 ALA
569 H569 7 28.3 13.5 H 101 GLY
570 H570 11.25 20 11 H 102 ASP
571 H571 11.25 21 11 H 105 ARG
572 H572 15.25 21 11 H 105 ARG
573 H573 15.55 20 11 H 106 ASN
574 H574 9.75 20 11 H 102 ASP
575 H575 8.25 20 11 H 107 ARG
576 H576 14.55 19 11 H 109 GLY
577 H577 14.55 20 11 H 106 ASN
578 H578 7.75 21.5 11 H 109 GLY
579 H579 8.25 21.5 11 H 103 ASN
580 H580 7.75 18.5 11 H 109 GLY
581 H581 8.25 18.5 11 H 104 ASP
582 H582 7.75 20 11 H 107 ARG
583 H583 8.75 18.5 11 H 109 GLY
584 H584 11.25 19 9.85 H 109 GLY
585 H585 8.75 21.5 11 H 109 GLY
586 H586 11.25 22 9.85 H 109 GLY
587 H587 11.25 20 9.85 H 108 GLY
588 H588 11.25 21 9.85 H 108 GLY
589 H589 0.75 20 11 H 110 ASP
590 H590 0.75 21 11 H 113 ARG
591 H591 -3.25 21 11 H 113 ARG
592 H592 -3.55 20 11 H 114 ASN
593 H593 2.25 20 11 H 110 ASP
594 H594 3.75 20 11 H 115 ARG
595 H595 -2.55 19 11 H 117 GLY
596 H596 -2.55 20 11 H 114 ASN
597 H597 4.25 21.5 11 H 117 GLY
598 H598 3.75 21.5 11 H 111 ASN
599 H599 4.25 18.5 11 H 117 GLY
600 H600 3.75 18.5 11 H 112 ASP
601 H601 4.25 20 11 H 115 ARG
602 H602 3.25 18.5 11 H 117 GLY
603 H603 0.75 19 9.85 H 117 GLY
604 H604 3.25 21.5 11 H 117 GLY
605 H605 0.75 22 9.85 H 117 GLY
606 H606 0.75 20 9.85 H 116 GLY
607 H607 0.75 21 9.85 H 116 GLY
608 H608 3 32.5 13.5 H 118 ASP
609 H609 3 33.5 13.5 H 121 ARG
610 H610 -1 33.5 13.5 H 121 ARG
611 H611 -1.3 32.5 13.5 H 122 ASN
612 H612 4.5 32.5 13.5 H 118 ASP
613 H613 6 32.5 13.5 H 123 ARG
614 H614 -0.3 31.5 13.5 H 125 GLY
615 H615 -0.3 32.5 13.5 H 122 ASN
616 H616 6.5 34 13.5 H 125 GLY
617 H617 6 34 13.5 H 119 ASN
618 H618 6.5 31 13.5 H 125 GLY
619 H619 6 31 13.5 H 120 ASP
620 H620 6.5 32.5 13.5 H 123 ARG
621 H621 5.5 31 13.5 H 125 GLY
622 H622 3 31.5 12.35 H 125 GLY
623 H623 5.5 34 13.5 H 125 GLY
624 H624 3 34.5 12.35 H 125 GLY
625 H625 3 32.5 12.35 H 124 GLY
626 H626 3 33.5 12.35 H 124 GLY
627 H627 -0.75 0 1.5 H 0 ALA
628 H628 3.75 0 1.5 H 1 ARG
629 H629 1.5 6.5 4 H 80 ASP
630 H630 1.5 12 7 H 54 ALA
631 H631 1.5 9.5 7 H 79 ASN
632 H632 6 12 7 H 55 ARG
633 H633 6 9.5 7 H 71 ASN
634 H634 3.75 18.5 9.5 H 112 ASP
635 H635 3.75 24 12.5 H 86 ALA
636 H636 3.75 21.5 12.5 H 111 ASN
637 H637 8.25 24 12.5 H 87 ARG
638 H638 8.25 21.5 12.5 H 103 ASN
639 H639 6 31 15 H 120 ASP
@<TRIPOS>BOND
1 1 2 2
2 1 4 2
3 2 3 2
4 3 5 2
5 6 7 2
6 6 9 2
7 7 8 2
8 8 10 2
9 11 12 2
10 11 18 2
11 12 13 2
12 13 14 2
13 13 15 2
14 14 16 2
15 15 17 2
16 22 23 2
17 23 24 2
18 25 26 2
19 27 28 2
20 29 34 2
21 29 39 2
22 29 30 2
23 30 35 2
24 30 40 2
25 30 31 2
26 31 36 2
27 31 41 2
28 31 32 2
29 32 37 2
30 32 42 2
31 32 33 2
32 33 38 2
33 33 43 2
34 50 51 2
35 50 53 2
36 51 52 2
37 53 54 2
38 54 55 2
39 58 59 2
40 60 61 2
41 61 62 2
42 63 64 2
43 64 65 2
44 66 67 2
45 67 68 2
46 68 69 2
47 69 70 2
48 71 72 2
49 73 74 2
50 74 76 2
51 74 75 2
52 77 78 2
53 80 81 2
54 82 83 2
55 83 84 2
56 85 86 2
57 86 87 2
58 88 89 2
59 89 90 2
60 90 91 2
61 91 92 2
62 93 94 2
63 95 96 2
64 96 98 2
65 96 97 2
66 99 100 2
67 102 103 2
68 102 105 2
69 103 104 2
70 105 106 2
71 106 107 2
72 110 111 2
73 112 113 2
74 113 114 2
75 115 116 2
76 116 117 2
77 118 119 2
78 119 120 2
79 120 121 2
80 121 122 2
81 123 124 2
82 125 126 2
83 126 128 2
84 126 127 2
85 129 130 2
86 132 133 2
87 134 135 2
88 135 136 2
89 137 138 2
90 138 139 2
91 140 141 2
92 141 142 2
93 142 143 2
94 143 144 2
95 145 146 2
96 147 148 2
97 148 150 2
98 148 149 2
99 151 152 2
100 154 155 2
101 154 157 2
102 155 156 2
103 156 158 2
104 159 160 2
105 159 162 2
106 160 161 2
107 161 163 2
108 164 165 2
109 164 171 2
110 165 166 2
111 166 167 2
112 166 168 2
113 167 169 2
114 168 170 2
115 175 176 2
116 176 177 2
117 178 179 2
118 180 181 2
119 182 187 2
120 182 192 2
121 182 183 2
122 183 188 2
123 183 193 2
124 183 184 2
125 184 189 2
126 184 194 2
127 184 185 2
128 185 190 2
129 185 195 2
130 185 186 2
131 186 191 2
132 186 196 2
133 203 204 2
134 205 206 2
135 206 207 2
136 208 209 2
137 209 210 2
138 211 212 2
139 212 213 2
140 213 214 2
141 214 215 2
142 216 217 2
143 218 219 2
144 219 221 2
145 219 220 2
146 222 223 2
147 225 226 2
148 227 228 2
149 228 229 2
150 230 231 2
151 231 232 2
152 233 234 2
153 234 235 2
154 235 236 2
155 236 237 2
156 238 239 2
157 240 241 2
158 241 243 2
159 241 242 2
160 244 245 2
161 247 248 2
162 247 250 2
163 248 249 2
164 249 251 2
165 252 253 2
166 252 255 2
167 253 254 2
168 254 256 2
169 257 258 2
170 257 264 2
171 258 259 2
172 259 260 2
173 259 261 2
174 260 262 2
175 261 263 2
176 268 269 2
177 269 270 2
178 271 272 2
179 273 274 2
180 275 280 2
181 275 285 2
182 275 276 2
183 276 281 2
184 276 286 2
185 276 277 2
186 277 282 2
187 277 287 2
188 277 278 2
189 278 283 2
190 278 288 2
191 278 279 2
192 279 284 2
193 279 289 2
194 296 297 2
195 298 299 2
196 299 300 2
197 301 302 2
198 302 303 2
199 304 305 2
200 305 306 2
201 306 307 2
202 307 308 2
203 309 310 2
204 311 312 2
205 312 314 2
206 312 313 2
207 315 316 2
208 318 319 2
209 320 321 2
210 321 322 2
211 323 324 2
212 324 325 2
213 326 327 2
214 327 328 2
215 328 329 2
216 329 330 2
217 331 332 2
218 333 334 2
219 334 336 2
220 334 335 2
221 337 338 2
222 340 341 2
223 342 343 2
224 343 344 2
225 345 346 2
226 346 347 2
227 348 349 2
228 349 350 2
229 350 351 2
230 351 352 2
231 353 354 2
232 355 356 2
233 356 358 2
234 356 357 2
235 359 360 2
236 362 363 1
237 364 365 1
238 365 368 1
239 366 367 1
240 367 368 1
241 369 370 1
242 371 372 1
243 372 629 1
244 373 374 1
245 375 376 1
246 377 378 1
247 377 387 1
248 379 380 1
249 381 382 1
250 383 384 1
251 385 386 1
252 388 389 1
253 390 391 1
254 392 393 1
255 394 395 1
256 396 397 1
257 398 399 1
258 400 401 1
259 400 404 1
260 400 404 1
261 402 403 1
262 402 404 1
263 402 404 1
264 405 406 1
265 406 409 1
266 407 408 1
267 408 410 1
268 411 412 1
269 413 414 1
270 415 416 1
271 417 418 1
272 419 420 1
273 419 423 1
274 419 423 1
275 421 422 1
276 421 423 1
277 421 423 1
278 424 425 1
279 425 428 1
280 426 427 1
281 427 429 1
282 430 431 1
283 432 433 1
284 432 628 1
285 434 435 1
286 436 437 1
287 438 439 1
288 440 441 1
289 442 443 1
290 444 445 1
291 446 447 1
292 446 450 1
293 446 450 1
294 448 449 1
295 448 450 1
296 448 450 1
297 451 452 1
298 452 455 1
299 453 454 1
300 454 456 1
301 457 458 1
302 459 460 1
303 461 462 1
304 463 464 1
305 465 466 1
306 465 469 1
307 465 469 1
308 467 468 1
309 467 469 1
310 467 469 1
311 470 471 1
312 471 474 1
313 472 473 1
314 473 475 1
315 476 477 1
316 478 479 1
317 478 627 1
318 480 481 1
319 482 483 1
320 483 486 1
321 484 485 1
322 485 486 1
323 487 488 1
324 489 490 1
325 490 634 1
326 491 492 1
327 493 494 1
328 495 496 1
329 495 505 1
330 497 498 1
331 499 500 1
332 501 502 1
333 503 504 1
334 506 507 1
335 508 509 1
336 510 511 1
337 512 513 1
338 514 515 1
339 514 518 1
340 514 518 1
341 516 517 1
342 516 518 1
343 516 518 1
344 519 520 1
345 520 523 1
346 521 522 1
347 522 524 1
348 525 526 1
349 527 528 1
350 529 530 1
351 531 532 1
352 533 534 1
353 533 537 1
354 533 537 1
355 535 536 1
356 535 537 1
357 535 537 1
358 538 539 1
359 539 542 1
360 540 541 1
361 541 543 1
362 544 545 1
363 546 547 1
364 547 550 1
365 548 549 1
366 549 550 1
367 551 552 1
368 553 554 1
369 554 639 1
370 555 556 1
371 557 558 1
372 559 560 1
373 559 569 1
374 561 562 1
375 563 564 1
376 565 566 1
377 567 568 1
378 570 571 1
379 572 573 1
380 574 575 1
381 576 577 1
382 578 579 1
383 578 582 1
384 578 582 1
385 580 581 1
386 580 582 1
387 580 582 1
388 583 584 1
389 584 587 1
390 585 586 1
391 586 588 1
392 589 590 1
393 591 592 1
394 593 594 1
395 595 596 1
396 597 598 1
397 597 601 1
398 597 601 1
399 599 600 1
400 599 601 1
401 599 601 1
402 602 603 1
403 603 606 1
404 604 605 1
405 605 607 1
406 608 609 1
407 610 611 1
408 612 613 1
409 614 615 1
410 616 617 1
411 616 620 1
412 616 620 1
413 618 619 1
414 618 620 1
415 618 620 1
416 621 622 1
417 622 625 1
418 623 624 1
419 624 626 1
420 630 631 1
421 632 633 1
422 635 636 1
423 637 638 1
